1
    SWAT Jun 01 2011    VER 2009/Rev. 481                                                                0/ 0/   0      0: 0: 0

    General Input/Output section (file.cio):                                        
    2013-7-14 00:00:00 ARCGIS-SWAT interface AV                                     
                                                                                    


       RCH      GIS   MON     AREAkm2  FLOW_INcms FLOW_OUTcms     EVAPcms    TLOSScms  SED_INtons SED_OUTtonsSEDCONCmg/kg   ORGN_INkg  ORGN_OUTkg   ORGP_INkg  ORGP_OUTkg    NO3_INkg   NO3_OUTkg    NH4_INkg   NH4_OUTkg    NO2_INkg   NO2_OUTkg   MINP_INkg  MINP_OUTkg   CHLA_INkg  CHLA_OUTkg   CBOD_INkg  CBOD_OUTkg  DISOX_INkg DISOX_OUTkg SOLPST_INmgSOLPST_OUTmg SORPST_INmgSORPST_OUTmg  REACTPSTmg    VOLPSTmg  SETTLPSTmgRESUSP_PSTmgDIFFUSEPSTmgREACBEDPSTmg   BURYPSTmg   BED_PSTmg BACTP_OUTctBACTLP_OUTct  CMETAL#1kg  CMETAL#2kg  CMETAL#3kg
REACH    1        0     1  0.7646E+02  0.1928E+00  0.1814E+00  0.9089E-03  0.9302E-01  0.6888E-06  0.6888E-06  0.4395E-04  0.5985E-05  0.0000E+00  0.1389E-04  0.0000E+00  0.2210E+02  0.2080E+02  0.0000E+00  0.0000E+00  0.0000E+00  0.0000E+00  0.4638E-05  0.0000E+00  0.0000E+00  0.0000E+00  0.0000E+00  0.0000E+00  0.0000E+00  0.4702E-01  0.0000E+00  0.0000E+00  0.0000E+00  0.0000E+00  0.0000E+00  0.0000E+00  0.0000E+00  0.0000E+00  0.0000E+00  0.0000E+00  0.0000E+00  0.0000E+00  0.0000E+00  0.0000E+00  0.0000E+00  0.0000E+00  0.0000E+00
REACH    2        0     1  0.8510E+02  0.1751E+00  0.1591E+00  0.8782E-03  0.8996E-01  0.6167E-08  0.6167E-08  0.4486E-06  0.6357E-05  0.0000E+00  0.1907E-04  0.0000E+00  0.2022E+02  0.1837E+02  0.0000E+00  0.0000E+00  0.0000E+00  0.0000E+00  0.6365E-05  0.0000E+00  0.0000E+00  0.0000E+00  0.0000E+00  0.0000E+00  0.0000E+00  0.4124E-01  0.0000E+00  0.0000E+00  0.0000E+00  0.0000E+00  0.0000E+00  0.0000E+00  0.0000E+00  0.0000E+00  0.0000E+00  0.0000E+00  0.0000E+00  0.0000E+00  0.0000E+00  0.0000E+00  0.0000E+00  0.0000E+00  0.0000E+00
REACH    3        0     1  0.1958E+03  0.4069E+00  0.4051E+00  0.1440E-02  0.1492E+00  0.5060E-02  0.3196E+00  0.9133E+01  0.6971E-01  0.5735E-01  0.1130E-01  0.8294E-02  0.4773E+02  0.4752E+02  0.0000E+00  0.0000E+00  0.0000E+00  0.0000E+00  0.4471E-02  0.1335E-01  0.0000E+00  0.0000E+00  0.0000E+00  0.0000E+00  0.8826E-01  0.2636E+00  0.0000E+00  0.0000E+00  0.0000E+00  0.0000E+00  0.0000E+00  0.0000E+00  0.0000E+00  0.0000E+00  0.0000E+00  0.0000E+00  0.0000E+00  0.0000E+00  0.0000E+00  0.0000E+00  0.0000E+00  0.0000E+00  0.0000E+00
REACH    4        0     1  0.3629E+02  0.9300E-01  0.9084E-01  0.1471E-03  0.1522E-01  0.2214E-02  0.2214E-02  0.2821E+00  0.3762E-01  0.3037E-01  0.6002E-02  0.4322E-02  0.1022E+02  0.9988E+01  0.0000E+00  0.0000E+00  0.0000E+00  0.0000E+00  0.2396E-02  0.7021E-02  0.0000E+00  0.0000E+00  0.0000E+00  0.0000E+00  0.0000E+00  0.2355E-01  0.0000E+00  0.0000E+00  0.0000E+00  0.0000E+00  0.0000E+00  0.0000E+00  0.0000E+00  0.0000E+00  0.0000E+00  0.0000E+00  0.0000E+00  0.0000E+00  0.0000E+00  0.0000E+00  0.0000E+00  0.0000E+00  0.0000E+00
REACH    5        0     1  0.2911E+03  0.6187E+00  0.5608E+00  0.3331E-02  0.3463E+00  0.3219E+00  0.9684E+00  0.1999E+02  0.8773E-01  0.6571E-01  0.1263E-01  0.8435E-02  0.6868E+02  0.6225E+02  0.0000E+00  0.0000E+00  0.0000E+00  0.0000E+00  0.2038E-01  0.4512E-01  0.0000E+00  0.0000E+00  0.0000E+00  0.0000E+00  0.2872E+00  0.7808E+00  0.0000E+00  0.0000E+00  0.0000E+00  0.0000E+00  0.0000E+00  0.0000E+00  0.0000E+00  0.0000E+00  0.0000E+00  0.0000E+00  0.0000E+00  0.0000E+00  0.0000E+00  0.0000E+00  0.0000E+00  0.0000E+00  0.0000E+00
REACH    1        0     2  0.7646E+02  0.1763E+00  0.1651E+00  0.1213E-02  0.9302E-01  0.3082E-07  0.3082E-07  0.2161E-05  0.4631E-05  0.0000E+00  0.1389E-04  0.0000E+00  0.2096E+02  0.1962E+02  0.0000E+00  0.0000E+00  0.0000E+00  0.0000E+00  0.4638E-05  0.0000E+00  0.0000E+00  0.0000E+00  0.0000E+00  0.0000E+00  0.0000E+00  0.4278E-01  0.0000E+00  0.0000E+00  0.0000E+00  0.0000E+00  0.0000E+00  0.0000E+00  0.0000E+00  0.0000E+00  0.0000E+00  0.0000E+00  0.0000E+00  0.0000E+00  0.0000E+00  0.0000E+00  0.0000E+00  0.0000E+00  0.0000E+00
REACH    2        0     2  0.8510E+02  0.1552E+00  0.1396E+00  0.1172E-02  0.8996E-01  0.6167E-08  0.6167E-08  0.5113E-06  0.6357E-05  0.0000E+00  0.1907E-04  0.1278E-04  0.1772E+02  0.1593E+02  0.0000E+00  0.0000E+00  0.0000E+00  0.0000E+00  0.6365E-05  0.0000E+00  0.0000E+00  0.0000E+00  0.0000E+00  0.0000E+00  0.0000E+00  0.3619E-01  0.0000E+00  0.0000E+00  0.0000E+00  0.0000E+00  0.0000E+00  0.0000E+00  0.0000E+00  0.0000E+00  0.0000E+00  0.0000E+00  0.0000E+00  0.0000E+00  0.0000E+00  0.0000E+00  0.0000E+00  0.0000E+00  0.0000E+00
REACH    3        0     2  0.1958E+03  0.3607E+00  0.3585E+00  0.1924E-02  0.1492E+00  0.4121E-02  0.2825E+00  0.9120E+01  0.5677E-01  0.4690E-01  0.9220E-02  0.6825E-02  0.4276E+02  0.4249E+02  0.0000E+00  0.0000E+00  0.0000E+00  0.0000E+00  0.3643E-02  0.1086E-01  0.0000E+00  0.0000E+00  0.0000E+00  0.0000E+00  0.7897E-01  0.2354E+00  0.0000E+00  0.0000E+00  0.0000E+00  0.0000E+00  0.0000E+00  0.0000E+00  0.0000E+00  0.0000E+00  0.0000E+00  0.0000E+00  0.0000E+00  0.0000E+00  0.0000E+00  0.0000E+00  0.0000E+00  0.0000E+00  0.0000E+00
REACH    4        0     2  0.3629E+02  0.8154E-01  0.7943E-01  0.1967E-03  0.1522E-01  0.1875E-02  0.1875E-02  0.2732E+00  0.3186E-01  0.2580E-01  0.5084E-02  0.3689E-02  0.8871E+01  0.8641E+01  0.0000E+00  0.0000E+00  0.0000E+00  0.0000E+00  0.2029E-02  0.5930E-02  0.0000E+00  0.0000E+00  0.0000E+00  0.0000E+00  0.0000E+00  0.2059E-01  0.0000E+00  0.0000E+00  0.0000E+00  0.0000E+00  0.0000E+00  0.0000E+00  0.0000E+00  0.0000E+00  0.0000E+00  0.0000E+00  0.0000E+00  0.0000E+00  0.0000E+00  0.0000E+00  0.0000E+00  0.0000E+00  0.0000E+00
REACH    5        0     2  0.2911E+03  0.5396E+00  0.4833E+00  0.4450E-02  0.3458E+00  0.2843E+00  0.8490E+00  0.2033E+02  0.7270E-01  0.5414E-01  0.1053E-01  0.7023E-02  0.6030E+02  0.5401E+02  0.0000E+00  0.0000E+00  0.0000E+00  0.0000E+00  0.1679E-01  0.4175E-01  0.0000E+00  0.0000E+00  0.0000E+00  0.0000E+00  0.2560E+00  0.6879E+00  0.0000E+00  0.0000E+00  0.0000E+00  0.0000E+00  0.0000E+00  0.0000E+00  0.0000E+00  0.0000E+00  0.0000E+00  0.0000E+00  0.0000E+00  0.0000E+00  0.0000E+00  0.0000E+00  0.0000E+00  0.0000E+00  0.0000E+00
REACH    1        0     3  0.7646E+02  0.1525E+00  0.1416E+00  0.1331E-02  0.9302E-01  0.4936E-08  0.4936E-08  0.4036E-06  0.4631E-05  0.0000E+00  0.1389E-04  0.0000E+00  0.1714E+02  0.1591E+02  0.0000E+00  0.0000E+00  0.0000E+00  0.0000E+00  0.4638E-05  0.0000E+00  0.0000E+00  0.0000E+00  0.0000E+00  0.0000E+00  0.0000E+00  0.3669E-01  0.0000E+00  0.0000E+00  0.0000E+00  0.0000E+00  0.0000E+00  0.0000E+00  0.0000E+00  0.0000E+00  0.0000E+00  0.0000E+00  0.0000E+00  0.0000E+00  0.0000E+00  0.0000E+00  0.0000E+00  0.0000E+00  0.0000E+00
REACH    2        0     3  0.8510E+02  0.1386E+00  0.1235E+00  0.1286E-02  0.8996E-01  0.6167E-08  0.6167E-08  0.5779E-06  0.6357E-05  0.0000E+00  0.1907E-04  0.1241E-04  0.1564E+02  0.1394E+02  0.0000E+00  0.0000E+00  0.0000E+00  0.0000E+00  0.6365E-05  0.0000E+00  0.0000E+00  0.0000E+00  0.0000E+00  0.0000E+00  0.0000E+00  0.3201E-01  0.0000E+00  0.0000E+00  0.0000E+00  0.0000E+00  0.0000E+00  0.0000E+00  0.0000E+00  0.0000E+00  0.0000E+00  0.0000E+00  0.0000E+00  0.0000E+00  0.0000E+00  0.0000E+00  0.0000E+00  0.0000E+00  0.0000E+00
REACH    3        0     3  0.1958E+03  0.3126E+00  0.3101E+00  0.2113E-02  0.1492E+00  0.3359E-02  0.2441E+00  0.9109E+01  0.4627E-01  0.3775E-01  0.7519E-02  0.5451E-02  0.3592E+02  0.3564E+02  0.0000E+00  0.0000E+00  0.0000E+00  0.0000E+00  0.2970E-02  0.8839E-02  0.0000E+00  0.0000E+00  0.0000E+00  0.0000E+00  0.6870E-01  0.2045E+00  0.0000E+00  0.0000E+00  0.0000E+00  0.0000E+00  0.0000E+00  0.0000E+00  0.0000E+00  0.0000E+00  0.0000E+00  0.0000E+00  0.0000E+00  0.0000E+00  0.0000E+00  0.0000E+00  0.0000E+00  0.0000E+00  0.0000E+00
REACH    4        0     3  0.3629E+02  0.7172E-01  0.6967E-01  0.2159E-03  0.1522E-01  0.1588E-02  0.1588E-02  0.2638E+00  0.2698E-01  0.2155E-01  0.4307E-02  0.3057E-02  0.7716E+01  0.7495E+01  0.0000E+00  0.0000E+00  0.0000E+00  0.0000E+00  0.1719E-02  0.5010E-02  0.0000E+00  0.0000E+00  0.0000E+00  0.0000E+00  0.0000E+00  0.1806E-01  0.0000E+00  0.0000E+00  0.0000E+00  0.0000E+00  0.0000E+00  0.0000E+00  0.0000E+00  0.0000E+00  0.0000E+00  0.0000E+00  0.0000E+00  0.0000E+00  0.0000E+00  0.0000E+00  0.0000E+00  0.0000E+00  0.0000E+00
REACH    5        0     3  0.2911E+03  0.4643E+00  0.4098E+00  0.4887E-02  0.3458E+00  0.2457E+00  0.7063E+00  0.1995E+02  0.5931E-01  0.4305E-01  0.8519E-02  0.5494E-02  0.5067E+02  0.4472E+02  0.0000E+00  0.0000E+00  0.0000E+00  0.0000E+00  0.1385E-01  0.3668E-01  0.0000E+00  0.0000E+00  0.0000E+00  0.0000E+00  0.2225E+00  0.5893E+00  0.0000E+00  0.0000E+00  0.0000E+00  0.0000E+00  0.0000E+00  0.0000E+00  0.0000E+00  0.0000E+00  0.0000E+00  0.0000E+00  0.0000E+00  0.0000E+00  0.0000E+00  0.0000E+00  0.0000E+00  0.0000E+00  0.0000E+00
REACH    1        0     4  0.7646E+02  0.1357E+00  0.1249E+00  0.1585E-02  0.9302E-01  0.4936E-08  0.4936E-08  0.4574E-06  0.4631E-05  0.0000E+00  0.1389E-04  0.0000E+00  0.1488E+02  0.1369E+02  0.0000E+00  0.0000E+00  0.0000E+00  0.0000E+00  0.4638E-05  0.0000E+00  0.0000E+00  0.0000E+00  0.0000E+00  0.0000E+00  0.0000E+00  0.3238E-01  0.0000E+00  0.0000E+00  0.0000E+00  0.0000E+00  0.0000E+00  0.0000E+00  0.0000E+00  0.0000E+00  0.0000E+00  0.0000E+00  0.0000E+00  0.0000E+00  0.0000E+00  0.0000E+00  0.0000E+00  0.0000E+00  0.0000E+00
REACH    2        0     4  0.8510E+02  0.1247E+00  0.1101E+00  0.1528E-02  0.8970E-01  0.6167E-08  0.6167E-08  0.6481E-06  0.6357E-05  0.0000E+00  0.1907E-04  0.1200E-04  0.1391E+02  0.1229E+02  0.0000E+00  0.0000E+00  0.0000E+00  0.0000E+00  0.6365E-05  0.0000E+00  0.0000E+00  0.0000E+00  0.0000E+00  0.0000E+00  0.0000E+00  0.2854E-01  0.0000E+00  0.0000E+00  0.0000E+00  0.0000E+00  0.0000E+00  0.0000E+00  0.0000E+00  0.0000E+00  0.0000E+00  0.0000E+00  0.0000E+00  0.0000E+00  0.0000E+00  0.0000E+00  0.0000E+00  0.0000E+00  0.0000E+00
REACH    3        0     4  0.1958E+03  0.2756E+00  0.2727E+00  0.2518E-02  0.1492E+00  0.2738E-02  0.2144E+00  0.9098E+01  0.3772E-01  0.3026E-01  0.6132E-02  0.4323E-02  0.3114E+02  0.3082E+02  0.0000E+00  0.0000E+00  0.0000E+00  0.0000E+00  0.2421E-02  0.7188E-02  0.0000E+00  0.0000E+00  0.0000E+00  0.0000E+00  0.6092E-01  0.1809E+00  0.0000E+00  0.0000E+00  0.0000E+00  0.0000E+00  0.0000E+00  0.0000E+00  0.0000E+00  0.0000E+00  0.0000E+00  0.0000E+00  0.0000E+00  0.0000E+00  0.0000E+00  0.0000E+00  0.0000E+00  0.0000E+00  0.0000E+00
REACH    4        0     4  0.3629E+02  0.6329E-01  0.6135E-01  0.2562E-03  0.1515E-01  0.1345E-02  0.1345E-02  0.2537E+00  0.2285E-01  0.1796E-01  0.3649E-02  0.2520E-02  0.6728E+01  0.6522E+01  0.0000E+00  0.0000E+00  0.0000E+00  0.0000E+00  0.1456E-02  0.4235E-02  0.0000E+00  0.0000E+00  0.0000E+00  0.0000E+00  0.0000E+00  0.1590E-01  0.0000E+00  0.0000E+00  0.0000E+00  0.0000E+00  0.0000E+00  0.0000E+00  0.0000E+00  0.0000E+00  0.0000E+00  0.0000E+00  0.0000E+00  0.0000E+00  0.0000E+00  0.0000E+00  0.0000E+00  0.0000E+00  0.0000E+00
REACH    5        0     4  0.2911E+03  0.4045E+00  0.3512E+00  0.5828E-02  0.3458E+00  0.2157E+00  0.5927E+00  0.1954E+02  0.4822E-01  0.3395E-01  0.6854E-02  0.4240E-02  0.4354E+02  0.3780E+02  0.0000E+00  0.0000E+00  0.0000E+00  0.0000E+00  0.1143E-01  0.2976E-01  0.0000E+00  0.0000E+00  0.0000E+00  0.0000E+00  0.1968E+00  0.5125E+00  0.0000E+00  0.0000E+00  0.0000E+00  0.0000E+00  0.0000E+00  0.0000E+00  0.0000E+00  0.0000E+00  0.0000E+00  0.0000E+00  0.0000E+00  0.0000E+00  0.0000E+00  0.0000E+00  0.0000E+00  0.0000E+00  0.0000E+00
REACH    1        0     5  0.7646E+02  0.1238E+00  0.1136E+00  0.1390E-02  0.9302E-01  0.4936E-08  0.4936E-08  0.5029E-06  0.4631E-05  0.0000E+00  0.1389E-04  0.0000E+00  0.1363E+02  0.1250E+02  0.0000E+00  0.0000E+00  0.0000E+00  0.0000E+00  0.4638E-05  0.0000E+00  0.0000E+00  0.0000E+00  0.0000E+00  0.0000E+00  0.0000E+00  0.2945E-01  0.0000E+00  0.0000E+00  0.0000E+00  0.0000E+00  0.0000E+00  0.0000E+00  0.0000E+00  0.0000E+00  0.0000E+00  0.0000E+00  0.0000E+00  0.0000E+00  0.0000E+00  0.0000E+00  0.0000E+00  0.0000E+00  0.0000E+00
REACH    2        0     5  0.8510E+02  0.1128E+00  0.9907E-01  0.1340E-02  0.8970E-01  0.6167E-08  0.6167E-08  0.7205E-06  0.6357E-05  0.0000E+00  0.1907E-04  0.1159E-04  0.1246E+02  0.1094E+02  0.0000E+00  0.0000E+00  0.0000E+00  0.0000E+00  0.6365E-05  0.0000E+00  0.0000E+00  0.0000E+00  0.0000E+00  0.0000E+00  0.0000E+00  0.2568E-01  0.0000E+00  0.0000E+00  0.0000E+00  0.0000E+00  0.0000E+00  0.0000E+00  0.0000E+00  0.0000E+00  0.0000E+00  0.0000E+00  0.0000E+00  0.0000E+00  0.0000E+00  0.0000E+00  0.0000E+00  0.0000E+00  0.0000E+00
REACH    3        0     5  0.1958E+03  0.2474E+00  0.2451E+00  0.2205E-02  0.1489E+00  0.2232E-02  0.1926E+00  0.9097E+01  0.3075E-01  0.2431E-01  0.5002E-02  0.3431E-02  0.2784E+02  0.2758E+02  0.0000E+00  0.0000E+00  0.0000E+00  0.0000E+00  0.1974E-02  0.5867E-02  0.0000E+00  0.0000E+00  0.0000E+00  0.0000E+00  0.5512E-01  0.1638E+00  0.0000E+00  0.0000E+00  0.0000E+00  0.0000E+00  0.0000E+00  0.0000E+00  0.0000E+00  0.0000E+00  0.0000E+00  0.0000E+00  0.0000E+00  0.0000E+00  0.0000E+00  0.0000E+00  0.0000E+00  0.0000E+00  0.0000E+00
REACH    4        0     5  0.3629E+02  0.5604E-01  0.5420E-01  0.2245E-03  0.1515E-01  0.1139E-02  0.1139E-02  0.2432E+00  0.1935E-01  0.1494E-01  0.3092E-02  0.2071E-02  0.5884E+01  0.5691E+01  0.0000E+00  0.0000E+00  0.0000E+00  0.0000E+00  0.1234E-02  0.3580E-02  0.0000E+00  0.0000E+00  0.0000E+00  0.0000E+00  0.0000E+00  0.1405E-01  0.0000E+00  0.0000E+00  0.0000E+00  0.0000E+00  0.0000E+00  0.0000E+00  0.0000E+00  0.0000E+00  0.0000E+00  0.0000E+00  0.0000E+00  0.0000E+00  0.0000E+00  0.0000E+00  0.0000E+00  0.0000E+00  0.0000E+00
REACH    5        0     5  0.2911E+03  0.3582E+00  0.3081E+00  0.5101E-02  0.3454E+00  0.1938E+00  0.5383E+00  0.2022E+02  0.3925E-01  0.2695E-01  0.5512E-02  0.3283E-02  0.3838E+02  0.3302E+02  0.0000E+00  0.0000E+00  0.0000E+00  0.0000E+00  0.9451E-02  0.2439E-01  0.0000E+00  0.0000E+00  0.0000E+00  0.0000E+00  0.1779E+00  0.4590E+00  0.0000E+00  0.0000E+00  0.0000E+00  0.0000E+00  0.0000E+00  0.0000E+00  0.0000E+00  0.0000E+00  0.0000E+00  0.0000E+00  0.0000E+00  0.0000E+00  0.0000E+00  0.0000E+00  0.0000E+00  0.0000E+00  0.0000E+00
REACH    1        0     6  0.7646E+02  0.1136E+00  0.1040E+00  0.1144E-02  0.9302E-01  0.4936E-08  0.4936E-08  0.5492E-06  0.4631E-05  0.0000E+00  0.1389E-04  0.0000E+00  0.1255E+02  0.1149E+02  0.0000E+00  0.0000E+00  0.0000E+00  0.0000E+00  0.4638E-05  0.0000E+00  0.0000E+00  0.0000E+00  0.0000E+00  0.0000E+00  0.0000E+00  0.2697E-01  0.0000E+00  0.0000E+00  0.0000E+00  0.0000E+00  0.0000E+00  0.0000E+00  0.0000E+00  0.0000E+00  0.0000E+00  0.0000E+00  0.0000E+00  0.0000E+00  0.0000E+00  0.0000E+00  0.0000E+00  0.0000E+00  0.0000E+00
REACH    2        0     6  0.8510E+02  0.1028E+00  0.8980E-01  0.1103E-02  0.8970E-01  0.6167E-08  0.6167E-08  0.7948E-06  0.6357E-05  0.0000E+00  0.1907E-04  0.1151E-04  0.1124E+02  0.9814E+01  0.0000E+00  0.0000E+00  0.0000E+00  0.0000E+00  0.6365E-05  0.0000E+00  0.0000E+00  0.0000E+00  0.0000E+00  0.0000E+00  0.0000E+00  0.2328E-01  0.0000E+00  0.0000E+00  0.0000E+00  0.0000E+00  0.0000E+00  0.0000E+00  0.0000E+00  0.0000E+00  0.0000E+00  0.0000E+00  0.0000E+00  0.0000E+00  0.0000E+00  0.0000E+00  0.0000E+00  0.0000E+00  0.0000E+00
REACH    3        0     6  0.1958E+03  0.2237E+00  0.2218E+00  0.1813E-02  0.1489E+00  0.1820E-02  0.1741E+00  0.9087E+01  0.2506E-01  0.1981E-01  0.4081E-02  0.2795E-02  0.2508E+02  0.2486E+02  0.0000E+00  0.0000E+00  0.0000E+00  0.0000E+00  0.1610E-02  0.4788E-02  0.0000E+00  0.0000E+00  0.0000E+00  0.0000E+00  0.5024E-01  0.1494E+00  0.0000E+00  0.0000E+00  0.0000E+00  0.0000E+00  0.0000E+00  0.0000E+00  0.0000E+00  0.0000E+00  0.0000E+00  0.0000E+00  0.0000E+00  0.0000E+00  0.0000E+00  0.0000E+00  0.0000E+00  0.0000E+00  0.0000E+00
REACH    4        0     6  0.3629E+02  0.4980E-01  0.4807E-01  0.1846E-03  0.1515E-01  0.9644E-03  0.9644E-03  0.2322E+00  0.1639E-01  0.1261E-01  0.2620E-02  0.1747E-02  0.5161E+01  0.4981E+01  0.0000E+00  0.0000E+00  0.0000E+00  0.0000E+00  0.1045E-02  0.3027E-02  0.0000E+00  0.0000E+00  0.0000E+00  0.0000E+00  0.0000E+00  0.1246E-01  0.0000E+00  0.0000E+00  0.0000E+00  0.0000E+00  0.0000E+00  0.0000E+00  0.0000E+00  0.0000E+00  0.0000E+00  0.0000E+00  0.0000E+00  0.0000E+00  0.0000E+00  0.0000E+00  0.0000E+00  0.0000E+00  0.0000E+00
REACH    5        0     6  0.2911E+03  0.3193E+00  0.3012E+00  0.0000E+00  0.3193E+00  0.1751E+00  0.5087E+00  0.1955E+02  0.3242E-01  0.2438E-01  0.4553E-02  0.2967E-02  0.3407E+02  0.3213E+02  0.0000E+00  0.0000E+00  0.0000E+00  0.0000E+00  0.7818E-02  0.2212E-01  0.0000E+00  0.0000E+00  0.0000E+00  0.0000E+00  0.1619E+00  0.4580E+00  0.0000E+00  0.0000E+00  0.0000E+00  0.0000E+00  0.0000E+00  0.0000E+00  0.0000E+00  0.0000E+00  0.0000E+00  0.0000E+00  0.0000E+00  0.0000E+00  0.0000E+00  0.0000E+00  0.0000E+00  0.0000E+00  0.0000E+00
REACH    1        0     7  0.7646E+02  0.1048E+00  0.9529E-01  0.1722E-02  0.9273E-01  0.4936E-08  0.4936E-08  0.5996E-06  0.4631E-05  0.0000E+00  0.1389E-04  0.0000E+00  0.1162E+02  0.1056E+02  0.0000E+00  0.0000E+00  0.0000E+00  0.0000E+00  0.4638E-05  0.0000E+00  0.0000E+00  0.0000E+00  0.0000E+00  0.0000E+00  0.0000E+00  0.2470E-01  0.0000E+00  0.0000E+00  0.0000E+00  0.0000E+00  0.0000E+00  0.0000E+00  0.0000E+00  0.0000E+00  0.0000E+00  0.0000E+00  0.0000E+00  0.0000E+00  0.0000E+00  0.0000E+00  0.0000E+00  0.0000E+00  0.0000E+00
REACH    2        0     7  0.8510E+02  0.9422E-01  0.8116E-01  0.1664E-02  0.8970E-01  0.6167E-08  0.6167E-08  0.8795E-06  0.6357E-05  0.0000E+00  0.1907E-04  0.1061E-04  0.1020E+02  0.8785E+01  0.0000E+00  0.0000E+00  0.0000E+00  0.0000E+00  0.6365E-05  0.0000E+00  0.0000E+00  0.0000E+00  0.0000E+00  0.0000E+00  0.0000E+00  0.2104E-01  0.0000E+00  0.0000E+00  0.0000E+00  0.0000E+00  0.0000E+00  0.0000E+00  0.0000E+00  0.0000E+00  0.0000E+00  0.0000E+00  0.0000E+00  0.0000E+00  0.0000E+00  0.0000E+00  0.0000E+00  0.0000E+00  0.0000E+00
REACH    3        0     7  0.1958E+03  0.2023E+00  0.1994E+00  0.2742E-02  0.1489E+00  0.1483E-02  0.1564E+00  0.9078E+01  0.2043E-01  0.1548E-01  0.3330E-02  0.2119E-02  0.2260E+02  0.2227E+02  0.0000E+00  0.0000E+00  0.0000E+00  0.0000E+00  0.1313E-02  0.3882E-02  0.0000E+00  0.0000E+00  0.0000E+00  0.0000E+00  0.4573E-01  0.1352E+00  0.0000E+00  0.0000E+00  0.0000E+00  0.0000E+00  0.0000E+00  0.0000E+00  0.0000E+00  0.0000E+00  0.0000E+00  0.0000E+00  0.0000E+00  0.0000E+00  0.0000E+00  0.0000E+00  0.0000E+00  0.0000E+00  0.0000E+00
REACH    4        0     7  0.3629E+02  0.4442E-01  0.4266E-01  0.2792E-03  0.1515E-01  0.8167E-03  0.8167E-03  0.2216E+00  0.1388E-01  0.1025E-01  0.2220E-02  0.1377E-02  0.4541E+01  0.4361E+01  0.0000E+00  0.0000E+00  0.0000E+00  0.0000E+00  0.8858E-03  0.2552E-02  0.0000E+00  0.0000E+00  0.0000E+00  0.0000E+00  0.0000E+00  0.1106E-01  0.0000E+00  0.0000E+00  0.0000E+00  0.0000E+00  0.0000E+00  0.0000E+00  0.0000E+00  0.0000E+00  0.0000E+00  0.0000E+00  0.0000E+00  0.0000E+00  0.0000E+00  0.0000E+00  0.0000E+00  0.0000E+00  0.0000E+00
REACH    5        0     7  0.2911E+03  0.2838E+00  0.3003E+00  0.0000E+00  0.2838E+00  0.1572E+00  0.4887E+00  0.1884E+02  0.2573E-01  0.2093E-01  0.3506E-02  0.2396E-02  0.3014E+02  0.3189E+02  0.0000E+00  0.0000E+00  0.0000E+00  0.0000E+00  0.6438E-02  0.2044E-01  0.0000E+00  0.0000E+00  0.0000E+00  0.0000E+00  0.1463E+00  0.4644E+00  0.0000E+00  0.0000E+00  0.0000E+00  0.0000E+00  0.0000E+00  0.0000E+00  0.0000E+00  0.0000E+00  0.0000E+00  0.0000E+00  0.0000E+00  0.0000E+00  0.0000E+00  0.0000E+00  0.0000E+00  0.0000E+00  0.0000E+00
REACH    1        0     8  0.7646E+02  0.9718E-01  0.8764E-01  0.2052E-02  0.9273E-01  0.4936E-08  0.4936E-08  0.6519E-06  0.4631E-05  0.0000E+00  0.1389E-04  0.8082E-05  0.1081E+02  0.9745E+01  0.0000E+00  0.0000E+00  0.0000E+00  0.0000E+00  0.4638E-05  0.0000E+00  0.0000E+00  0.0000E+00  0.0000E+00  0.0000E+00  0.0000E+00  0.2272E-01  0.0000E+00  0.0000E+00  0.0000E+00  0.0000E+00  0.0000E+00  0.0000E+00  0.0000E+00  0.0000E+00  0.0000E+00  0.0000E+00  0.0000E+00  0.0000E+00  0.0000E+00  0.0000E+00  0.0000E+00  0.0000E+00  0.0000E+00
REACH    2        0     8  0.8510E+02  0.8682E-01  0.7865E-01  0.0000E+00  0.8682E-01  0.6167E-08  0.6167E-08  0.9074E-06  0.6357E-05  0.0000E+00  0.1907E-04  0.1114E-04  0.9315E+01  0.8439E+01  0.0000E+00  0.0000E+00  0.0000E+00  0.0000E+00  0.6365E-05  0.0000E+00  0.0000E+00  0.0000E+00  0.0000E+00  0.0000E+00  0.0000E+00  0.2039E-01  0.0000E+00  0.0000E+00  0.0000E+00  0.0000E+00  0.0000E+00  0.0000E+00  0.0000E+00  0.0000E+00  0.0000E+00  0.0000E+00  0.0000E+00  0.0000E+00  0.0000E+00  0.0000E+00  0.0000E+00  0.0000E+00  0.0000E+00
REACH    3        0     8  0.1958E+03  0.1889E+00  0.1854E+00  0.3271E-02  0.1489E+00  0.1209E-02  0.1453E+00  0.9069E+01  0.1666E-01  0.1256E-01  0.2726E-02  0.1727E-02  0.2100E+02  0.2061E+02  0.0000E+00  0.0000E+00  0.0000E+00  0.0000E+00  0.1071E-02  0.3153E-02  0.0000E+00  0.0000E+00  0.0000E+00  0.0000E+00  0.4310E-01  0.1269E+00  0.0000E+00  0.0000E+00  0.0000E+00  0.0000E+00  0.0000E+00  0.0000E+00  0.0000E+00  0.0000E+00  0.0000E+00  0.0000E+00  0.0000E+00  0.0000E+00  0.0000E+00  0.0000E+00  0.0000E+00  0.0000E+00  0.0000E+00
REACH    4        0     8  0.3629E+02  0.3977E-01  0.3801E-01  0.3332E-03  0.1515E-01  0.6917E-03  0.6917E-03  0.2106E+00  0.1175E-01  0.8633E-02  0.1882E-02  0.1160E-02  0.4009E+01  0.3832E+01  0.0000E+00  0.0000E+00  0.0000E+00  0.0000E+00  0.7507E-03  0.2153E-02  0.0000E+00  0.0000E+00  0.0000E+00  0.0000E+00  0.0000E+00  0.9853E-02  0.0000E+00  0.0000E+00  0.0000E+00  0.0000E+00  0.0000E+00  0.0000E+00  0.0000E+00  0.0000E+00  0.0000E+00  0.0000E+00  0.0000E+00  0.0000E+00  0.0000E+00  0.0000E+00  0.0000E+00  0.0000E+00  0.0000E+00
REACH    5        0     8  0.2911E+03  0.2588E+00  0.2984E+00  0.0000E+00  0.2588E+00  0.1460E+00  0.4731E+00  0.1835E+02  0.2120E-01  0.1878E-01  0.2898E-02  0.2156E-02  0.2735E+02  0.3155E+02  0.0000E+00  0.0000E+00  0.0000E+00  0.0000E+00  0.5310E-02  0.1837E-01  0.0000E+00  0.0000E+00  0.0000E+00  0.0000E+00  0.1368E+00  0.4733E+00  0.0000E+00  0.0000E+00  0.0000E+00  0.0000E+00  0.0000E+00  0.0000E+00  0.0000E+00  0.0000E+00  0.0000E+00  0.0000E+00  0.0000E+00  0.0000E+00  0.0000E+00  0.0000E+00  0.0000E+00  0.0000E+00  0.0000E+00
REACH    1        0     9  0.7646E+02  0.9050E-01  0.8546E-01  0.0000E+00  0.9050E-01  0.4936E-08  0.4936E-08  0.6685E-06  0.4631E-05  0.0000E+00  0.1389E-04  0.8295E-05  0.1009E+02  0.9529E+01  0.0000E+00  0.0000E+00  0.0000E+00  0.0000E+00  0.4638E-05  0.0000E+00  0.0000E+00  0.0000E+00  0.0000E+00  0.0000E+00  0.0000E+00  0.2215E-01  0.0000E+00  0.0000E+00  0.0000E+00  0.0000E+00  0.0000E+00  0.0000E+00  0.0000E+00  0.0000E+00  0.0000E+00  0.0000E+00  0.0000E+00  0.0000E+00  0.0000E+00  0.0000E+00  0.0000E+00  0.0000E+00  0.0000E+00
REACH    2        0     9  0.8510E+02  0.8041E-01  0.7872E-01  0.0000E+00  0.8041E-01  0.6167E-08  0.6167E-08  0.9067E-06  0.6357E-05  0.0000E+00  0.1907E-04  0.1180E-04  0.8557E+01  0.8378E+01  0.0000E+00  0.0000E+00  0.0000E+00  0.0000E+00  0.6365E-05  0.0000E+00  0.0000E+00  0.0000E+00  0.0000E+00  0.0000E+00  0.0000E+00  0.2040E-01  0.0000E+00  0.0000E+00  0.0000E+00  0.0000E+00  0.0000E+00  0.0000E+00  0.0000E+00  0.0000E+00  0.0000E+00  0.0000E+00  0.0000E+00  0.0000E+00  0.0000E+00  0.0000E+00  0.0000E+00  0.0000E+00  0.0000E+00
REACH    3        0     9  0.1958E+03  0.1839E+00  0.1817E+00  0.2030E-02  0.1489E+00  0.9857E-03  0.1423E+00  0.9060E+01  0.1358E-01  0.1020E-01  0.2228E-02  0.1392E-02  0.2036E+02  0.2011E+02  0.0000E+00  0.0000E+00  0.0000E+00  0.0000E+00  0.8733E-03  0.2588E-02  0.0000E+00  0.0000E+00  0.0000E+00  0.0000E+00  0.4256E-01  0.1261E+00  0.0000E+00  0.0000E+00  0.0000E+00  0.0000E+00  0.0000E+00  0.0000E+00  0.0000E+00  0.0000E+00  0.0000E+00  0.0000E+00  0.0000E+00  0.0000E+00  0.0000E+00  0.0000E+00  0.0000E+00  0.0000E+00  0.0000E+00
REACH    4        0     9  0.3629E+02  0.3574E-01  0.3417E-01  0.2066E-03  0.1515E-01  0.5858E-03  0.5858E-03  0.1984E+00  0.9955E-02  0.7237E-02  0.1595E-02  0.9642E-03  0.3552E+01  0.3396E+01  0.0000E+00  0.0000E+00  0.0000E+00  0.0000E+00  0.6362E-03  0.1825E-02  0.0000E+00  0.0000E+00  0.0000E+00  0.0000E+00  0.0000E+00  0.8858E-02  0.0000E+00  0.0000E+00  0.0000E+00  0.0000E+00  0.0000E+00  0.0000E+00  0.0000E+00  0.0000E+00  0.0000E+00  0.0000E+00  0.0000E+00  0.0000E+00  0.0000E+00  0.0000E+00  0.0000E+00  0.0000E+00  0.0000E+00
REACH    5        0     9  0.2911E+03  0.2460E+00  0.2961E+00  0.0000E+00  0.2460E+00  0.1428E+00  0.4639E+00  0.1814E+02  0.1744E-01  0.1596E-01  0.2367E-02  0.1801E-02  0.2593E+02  0.3120E+02  0.0000E+00  0.0000E+00  0.0000E+00  0.0000E+00  0.4417E-02  0.1595E-01  0.0000E+00  0.0000E+00  0.0000E+00  0.0000E+00  0.1350E+00  0.4874E+00  0.0000E+00  0.0000E+00  0.0000E+00  0.0000E+00  0.0000E+00  0.0000E+00  0.0000E+00  0.0000E+00  0.0000E+00  0.0000E+00  0.0000E+00  0.0000E+00  0.0000E+00  0.0000E+00  0.0000E+00  0.0000E+00  0.0000E+00
REACH    1        0    10  0.7646E+02  0.8461E-01  0.8541E-01  0.0000E+00  0.8461E-01  0.4936E-08  0.4936E-08  0.6689E-06  0.4631E-05  0.0000E+00  0.1389E-04  0.8932E-05  0.9456E+01  0.9546E+01  0.0000E+00  0.0000E+00  0.0000E+00  0.0000E+00  0.4638E-05  0.0000E+00  0.0000E+00  0.0000E+00  0.0000E+00  0.0000E+00  0.0000E+00  0.2214E-01  0.0000E+00  0.0000E+00  0.0000E+00  0.0000E+00  0.0000E+00  0.0000E+00  0.0000E+00  0.0000E+00  0.0000E+00  0.0000E+00  0.0000E+00  0.0000E+00  0.0000E+00  0.0000E+00  0.0000E+00  0.0000E+00  0.0000E+00
REACH    2        0    10  0.8510E+02  0.7481E-01  0.7854E-01  0.0000E+00  0.7481E-01  0.6167E-08  0.6167E-08  0.9088E-06  0.6357E-05  0.0000E+00  0.1907E-04  0.1275E-04  0.7903E+01  0.8297E+01  0.0000E+00  0.0000E+00  0.0000E+00  0.0000E+00  0.6365E-05  0.0000E+00  0.0000E+00  0.0000E+00  0.0000E+00  0.0000E+00  0.0000E+00  0.2036E-01  0.0000E+00  0.0000E+00  0.0000E+00  0.0000E+00  0.0000E+00  0.0000E+00  0.0000E+00  0.0000E+00  0.0000E+00  0.0000E+00  0.0000E+00  0.0000E+00  0.0000E+00  0.0000E+00  0.0000E+00  0.0000E+00  0.0000E+00
REACH    3        0    10  0.1958E+03  0.1811E+00  0.1799E+00  0.1022E-02  0.1489E+00  0.8035E-03  0.1407E+00  0.9053E+01  0.1107E-01  0.8391E-02  0.1823E-02  0.1154E-02  0.1999E+02  0.1985E+02  0.0000E+00  0.0000E+00  0.0000E+00  0.0000E+00  0.7124E-03  0.2123E-02  0.0000E+00  0.0000E+00  0.0000E+00  0.0000E+00  0.4250E-01  0.1266E+00  0.0000E+00  0.0000E+00  0.0000E+00  0.0000E+00  0.0000E+00  0.0000E+00  0.0000E+00  0.0000E+00  0.0000E+00  0.0000E+00  0.0000E+00  0.0000E+00  0.0000E+00  0.0000E+00  0.0000E+00  0.0000E+00  0.0000E+00
REACH    4        0    10  0.3629E+02  0.3206E-01  0.3065E-01  0.1040E-03  0.1515E-01  0.4961E-03  0.4961E-03  0.1873E+00  0.8431E-02  0.6153E-02  0.1352E-02  0.8236E-03  0.3158E+01  0.3020E+01  0.0000E+00  0.0000E+00  0.0000E+00  0.0000E+00  0.5393E-03  0.1547E-02  0.0000E+00  0.0000E+00  0.0000E+00  0.0000E+00  0.0000E+00  0.7946E-02  0.0000E+00  0.0000E+00  0.0000E+00  0.0000E+00  0.0000E+00  0.0000E+00  0.0000E+00  0.0000E+00  0.0000E+00  0.0000E+00  0.0000E+00  0.0000E+00  0.0000E+00  0.0000E+00  0.0000E+00  0.0000E+00  0.0000E+00
REACH    5        0    10  0.2911E+03  0.2364E+00  0.2934E+00  0.0000E+00  0.2364E+00  0.1412E+00  0.4558E+00  0.1798E+02  0.1455E-01  0.1378E-01  0.1988E-02  0.1572E-02  0.2490E+02  0.3091E+02  0.0000E+00  0.0000E+00  0.0000E+00  0.0000E+00  0.3674E-02  0.1368E-01  0.0000E+00  0.0000E+00  0.0000E+00  0.0000E+00  0.1346E+00  0.5012E+00  0.0000E+00  0.0000E+00  0.0000E+00  0.0000E+00  0.0000E+00  0.0000E+00  0.0000E+00  0.0000E+00  0.0000E+00  0.0000E+00  0.0000E+00  0.0000E+00  0.0000E+00  0.0000E+00  0.0000E+00  0.0000E+00  0.0000E+00
REACH    1        0    11  0.7646E+02  0.7938E-01  0.8512E-01  0.0000E+00  0.7938E-01  0.4936E-08  0.4936E-08  0.6712E-06  0.4631E-05  0.0000E+00  0.1389E-04  0.8977E-05  0.8891E+01  0.9534E+01  0.0000E+00  0.0000E+00  0.0000E+00  0.0000E+00  0.4638E-05  0.0000E+00  0.0000E+00  0.0000E+00  0.0000E+00  0.0000E+00  0.0000E+00  0.2206E-01  0.0000E+00  0.0000E+00  0.0000E+00  0.0000E+00  0.0000E+00  0.0000E+00  0.0000E+00  0.0000E+00  0.0000E+00  0.0000E+00  0.0000E+00  0.0000E+00  0.0000E+00  0.0000E+00  0.0000E+00  0.0000E+00  0.0000E+00
REACH    2        0    11  0.8510E+02  0.6988E-01  0.7814E-01  0.0000E+00  0.6988E-01  0.6167E-08  0.6167E-08  0.9135E-06  0.6357E-05  0.0000E+00  0.1907E-04  0.1285E-04  0.7333E+01  0.8200E+01  0.0000E+00  0.0000E+00  0.0000E+00  0.0000E+00  0.6365E-05  0.2135E-04  0.0000E+00  0.0000E+00  0.0000E+00  0.0000E+00  0.0000E+00  0.2025E-01  0.0000E+00  0.0000E+00  0.0000E+00  0.0000E+00  0.0000E+00  0.0000E+00  0.0000E+00  0.0000E+00  0.0000E+00  0.0000E+00  0.0000E+00  0.0000E+00  0.0000E+00  0.0000E+00  0.0000E+00  0.0000E+00  0.0000E+00
REACH    3        0    11  0.1958E+03  0.1787E+00  0.1751E+00  0.3335E-02  0.1489E+00  0.6550E-03  0.1369E+00  0.9048E+01  0.9023E-02  0.6558E-02  0.1492E-02  0.8812E-03  0.1962E+02  0.1923E+02  0.0000E+00  0.0000E+00  0.0000E+00  0.0000E+00  0.6026E-03  0.1772E-02  0.0000E+00  0.0000E+00  0.0000E+00  0.0000E+00  0.4232E-01  0.1244E+00  0.0000E+00  0.0000E+00  0.0000E+00  0.0000E+00  0.0000E+00  0.0000E+00  0.0000E+00  0.0000E+00  0.0000E+00  0.0000E+00  0.0000E+00  0.0000E+00  0.0000E+00  0.0000E+00  0.0000E+00  0.0000E+00  0.0000E+00
REACH    4        0    11  0.3629E+02  0.2921E-01  0.2762E-01  0.3395E-03  0.1515E-01  0.4201E-03  0.4201E-03  0.1761E+00  0.7141E-02  0.5008E-02  0.1147E-02  0.6534E-03  0.2819E+01  0.2666E+01  0.0000E+00  0.0000E+00  0.0000E+00  0.0000E+00  0.4572E-03  0.1297E-02  0.0000E+00  0.0000E+00  0.0000E+00  0.0000E+00  0.0000E+00  0.7159E-02  0.0000E+00  0.0000E+00  0.0000E+00  0.0000E+00  0.0000E+00  0.0000E+00  0.0000E+00  0.0000E+00  0.0000E+00  0.0000E+00  0.0000E+00  0.0000E+00  0.0000E+00  0.0000E+00  0.0000E+00  0.0000E+00  0.0000E+00
REACH    5        0    11  0.2911E+03  0.2250E+00  0.2903E+00  0.0000E+00  0.2250E+00  0.1373E+00  0.4454E+00  0.1776E+02  0.1157E-01  0.1107E-01  0.1545E-02  0.1202E-02  0.2359E+02  0.3045E+02  0.0000E+00  0.0000E+00  0.0000E+00  0.0000E+00  0.3073E-02  0.1190E-01  0.0000E+00  0.0000E+00  0.0000E+00  0.0000E+00  0.1316E+00  0.5094E+00  0.0000E+00  0.0000E+00  0.0000E+00  0.0000E+00  0.0000E+00  0.0000E+00  0.0000E+00  0.0000E+00  0.0000E+00  0.0000E+00  0.0000E+00  0.0000E+00  0.0000E+00  0.0000E+00  0.0000E+00  0.0000E+00  0.0000E+00
REACH    1        0    12  0.7646E+02  0.7470E-01  0.8464E-01  0.0000E+00  0.7470E-01  0.4936E-08  0.4936E-08  0.6750E-06  0.4631E-05  0.0000E+00  0.1389E-04  0.9566E-05  0.8383E+01  0.9498E+01  0.0000E+00  0.0000E+00  0.0000E+00  0.0000E+00  0.4638E-05  0.0000E+00  0.0000E+00  0.0000E+00  0.0000E+00  0.0000E+00  0.0000E+00  0.2194E-01  0.0000E+00  0.0000E+00  0.0000E+00  0.0000E+00  0.0000E+00  0.0000E+00  0.0000E+00  0.0000E+00  0.0000E+00  0.0000E+00  0.0000E+00  0.0000E+00  0.0000E+00  0.0000E+00  0.0000E+00  0.0000E+00  0.0000E+00
REACH    2        0    12  0.8510E+02  0.6551E-01  0.7757E-01  0.0000E+00  0.6551E-01  0.6167E-08  0.6167E-08  0.9202E-06  0.6357E-05  0.0000E+00  0.1907E-04  0.1372E-04  0.6834E+01  0.8092E+01  0.0000E+00  0.0000E+00  0.0000E+00  0.0000E+00  0.6365E-05  0.2261E-04  0.0000E+00  0.0000E+00  0.0000E+00  0.0000E+00  0.0000E+00  0.2010E-01  0.0000E+00  0.0000E+00  0.0000E+00  0.0000E+00  0.0000E+00  0.0000E+00  0.0000E+00  0.0000E+00  0.0000E+00  0.0000E+00  0.0000E+00  0.0000E+00  0.0000E+00  0.0000E+00  0.0000E+00  0.0000E+00  0.0000E+00
REACH    3        0    12  0.1958E+03  0.1760E+00  0.1732E+00  0.2515E-02  0.1489E+00  0.5340E-03  0.1353E+00  0.9043E+01  0.7356E-02  0.5393E-02  0.1223E-02  0.7318E-03  0.1926E+02  0.1896E+02  0.0000E+00  0.0000E+00  0.0000E+00  0.0000E+00  0.4970E-03  0.1468E-02  0.0000E+00  0.0000E+00  0.0000E+00  0.0000E+00  0.4204E-01  0.1242E+00  0.0000E+00  0.0000E+00  0.0000E+00  0.0000E+00  0.0000E+00  0.0000E+00  0.0000E+00  0.0000E+00  0.0000E+00  0.0000E+00  0.0000E+00  0.0000E+00  0.0000E+00  0.0000E+00  0.0000E+00  0.0000E+00  0.0000E+00
REACH    4        0    12  0.3629E+02  0.2656E-01  0.2510E-01  0.2560E-03  0.1515E-01  0.3558E-03  0.3558E-03  0.1640E+00  0.6048E-02  0.4258E-02  0.9726E-03  0.5587E-03  0.2526E+01  0.2388E+01  0.0000E+00  0.0000E+00  0.0000E+00  0.0000E+00  0.3877E-03  0.1100E-02  0.0000E+00  0.0000E+00  0.0000E+00  0.0000E+00  0.0000E+00  0.6507E-02  0.0000E+00  0.0000E+00  0.0000E+00  0.0000E+00  0.0000E+00  0.0000E+00  0.0000E+00  0.0000E+00  0.0000E+00  0.0000E+00  0.0000E+00  0.0000E+00  0.0000E+00  0.0000E+00  0.0000E+00  0.0000E+00  0.0000E+00
REACH    5        0    12  0.2911E+03  0.2176E+00  0.2871E+00  0.0000E+00  0.2176E+00  0.1357E+00  0.4370E+00  0.1762E+02  0.9655E-02  0.9488E-02  0.1301E-02  0.1043E-02  0.2277E+02  0.3005E+02  0.0000E+00  0.0000E+00  0.0000E+00  0.0000E+00  0.2571E-02  0.1018E-01  0.0000E+00  0.0000E+00  0.0000E+00  0.0000E+00  0.1307E+00  0.5172E+00  0.0000E+00  0.0000E+00  0.0000E+00  0.0000E+00  0.0000E+00  0.0000E+00  0.0000E+00  0.0000E+00  0.0000E+00  0.0000E+00  0.0000E+00  0.0000E+00  0.0000E+00  0.0000E+00  0.0000E+00  0.0000E+00  0.0000E+00
REACH    1        0    13  0.7646E+02  0.7049E-01  0.8400E-01  0.0000E+00  0.7049E-01  0.4936E-08  0.4936E-08  0.6801E-06  0.4631E-05  0.0000E+00  0.1389E-04  0.1144E-04  0.7923E+01  0.9442E+01  0.0000E+00  0.0000E+00  0.0000E+00  0.0000E+00  0.4638E-05  0.0000E+00  0.0000E+00  0.0000E+00  0.0000E+00  0.0000E+00  0.0000E+00  0.2177E-01  0.0000E+00  0.0000E+00  0.0000E+00  0.0000E+00  0.0000E+00  0.0000E+00  0.0000E+00  0.0000E+00  0.0000E+00  0.0000E+00  0.0000E+00  0.0000E+00  0.0000E+00  0.0000E+00  0.0000E+00  0.0000E+00  0.0000E+00
REACH    2        0    13  0.8510E+02  0.6161E-01  0.7684E-01  0.0000E+00  0.6161E-01  0.6167E-08  0.6167E-08  0.9288E-06  0.6357E-05  0.0000E+00  0.1907E-04  0.1644E-04  0.6394E+01  0.7975E+01  0.0000E+00  0.0000E+00  0.0000E+00  0.0000E+00  0.6365E-05  0.2382E-04  0.0000E+00  0.0000E+00  0.0000E+00  0.0000E+00  0.0000E+00  0.1992E-01  0.0000E+00  0.0000E+00  0.0000E+00  0.0000E+00  0.0000E+00  0.0000E+00  0.0000E+00  0.0000E+00  0.0000E+00  0.0000E+00  0.0000E+00  0.0000E+00  0.0000E+00  0.0000E+00  0.0000E+00  0.0000E+00  0.0000E+00
REACH    3        0    13  0.1958E+03  0.1732E+00  0.1700E+00  0.2876E-02  0.1489E+00  0.4353E-03  0.1328E+00  0.9039E+01  0.5997E-02  0.4694E-02  0.1008E-02  0.6837E-03  0.1890E+02  0.1856E+02  0.0000E+00  0.0000E+00  0.0000E+00  0.0000E+00  0.4110E-03  0.1211E-02  0.0000E+00  0.0000E+00  0.0000E+00  0.0000E+00  0.4169E-01  0.1228E+00  0.0000E+00  0.0000E+00  0.0000E+00  0.0000E+00  0.0000E+00  0.0000E+00  0.0000E+00  0.0000E+00  0.0000E+00  0.0000E+00  0.0000E+00  0.0000E+00  0.0000E+00  0.0000E+00  0.0000E+00  0.0000E+00  0.0000E+00
REACH    4        0    13  0.3629E+02  0.2424E-01  0.2280E-01  0.2931E-03  0.1515E-01  0.3013E-03  0.3013E-03  0.1530E+00  0.5122E-02  0.3841E-02  0.8251E-03  0.5362E-03  0.2272E+01  0.2137E+01  0.0000E+00  0.0000E+00  0.0000E+00  0.0000E+00  0.3288E-03  0.9279E-03  0.0000E+00  0.0000E+00  0.0000E+00  0.0000E+00  0.0000E+00  0.5909E-02  0.0000E+00  0.0000E+00  0.0000E+00  0.0000E+00  0.0000E+00  0.0000E+00  0.0000E+00  0.0000E+00  0.0000E+00  0.0000E+00  0.0000E+00  0.0000E+00  0.0000E+00  0.0000E+00  0.0000E+00  0.0000E+00  0.0000E+00
REACH    5        0    13  0.2911E+03  0.2096E+00  0.2836E+00  0.0000E+00  0.2096E+00  0.1331E+00  0.4276E+00  0.1745E+02  0.8539E-02  0.9209E-02  0.1231E-02  0.1150E-02  0.2190E+02  0.2963E+02  0.0000E+00  0.0000E+00  0.0000E+00  0.0000E+00  0.2142E-02  0.8694E-02  0.0000E+00  0.0000E+00  0.0000E+00  0.0000E+00  0.1287E+00  0.5224E+00  0.0000E+00  0.0000E+00  0.0000E+00  0.0000E+00  0.0000E+00  0.0000E+00  0.0000E+00  0.0000E+00  0.0000E+00  0.0000E+00  0.0000E+00  0.0000E+00  0.0000E+00  0.0000E+00  0.0000E+00  0.0000E+00  0.0000E+00
REACH    1        0    14  0.7646E+02  0.6668E-01  0.8323E-01  0.0000E+00  0.6668E-01  0.4936E-08  0.4936E-08  0.6865E-06  0.4631E-05  0.0000E+00  0.1389E-04  0.1248E-04  0.7505E+01  0.9368E+01  0.0000E+00  0.0000E+00  0.0000E+00  0.0000E+00  0.4638E-05  0.0000E+00  0.0000E+00  0.0000E+00  0.0000E+00  0.0000E+00  0.0000E+00  0.2157E-01  0.0000E+00  0.0000E+00  0.0000E+00  0.0000E+00  0.0000E+00  0.0000E+00  0.0000E+00  0.0000E+00  0.0000E+00  0.0000E+00  0.0000E+00  0.0000E+00  0.0000E+00  0.0000E+00  0.0000E+00  0.0000E+00  0.0000E+00
REACH    2        0    14  0.8510E+02  0.5810E-01  0.7601E-01  0.0000E+00  0.5810E-01  0.6167E-08  0.6167E-08  0.9391E-06  0.6357E-05  0.6781E-05  0.1907E-04  0.1795E-04  0.6003E+01  0.7852E+01  0.0000E+00  0.0000E+00  0.0000E+00  0.0000E+00  0.6365E-05  0.2498E-04  0.0000E+00  0.0000E+00  0.0000E+00  0.0000E+00  0.0000E+00  0.1970E-01  0.0000E+00  0.0000E+00  0.0000E+00  0.0000E+00  0.0000E+00  0.0000E+00  0.0000E+00  0.0000E+00  0.0000E+00  0.0000E+00  0.0000E+00  0.0000E+00  0.0000E+00  0.0000E+00  0.0000E+00  0.0000E+00  0.0000E+00
REACH    3        0    14  0.1958E+03  0.1704E+00  0.1680E+00  0.2068E-02  0.1489E+00  0.3548E-03  0.1312E+00  0.9036E+01  0.4895E-02  0.3937E-02  0.8308E-03  0.5897E-03  0.1854E+02  0.1829E+02  0.0000E+00  0.0000E+00  0.0000E+00  0.0000E+00  0.3412E-03  0.1009E-02  0.0000E+00  0.0000E+00  0.0000E+00  0.0000E+00  0.4127E-01  0.1221E+00  0.0000E+00  0.0000E+00  0.0000E+00  0.0000E+00  0.0000E+00  0.0000E+00  0.0000E+00  0.0000E+00  0.0000E+00  0.0000E+00  0.0000E+00  0.0000E+00  0.0000E+00  0.0000E+00  0.0000E+00  0.0000E+00  0.0000E+00
REACH    4        0    14  0.3629E+02  0.2220E-01  0.2090E-01  0.2108E-03  0.1515E-01  0.2552E-03  0.2552E-03  0.1413E+00  0.4338E-02  0.3329E-02  0.7002E-03  0.4743E-03  0.2052E+01  0.1931E+01  0.0000E+00  0.0000E+00  0.0000E+00  0.0000E+00  0.2790E-03  0.7876E-03  0.0000E+00  0.0000E+00  0.0000E+00  0.0000E+00  0.0000E+00  0.5416E-02  0.0000E+00  0.0000E+00  0.0000E+00  0.0000E+00  0.0000E+00  0.0000E+00  0.0000E+00  0.0000E+00  0.0000E+00  0.0000E+00  0.0000E+00  0.0000E+00  0.0000E+00  0.0000E+00  0.0000E+00  0.0000E+00  0.0000E+00
REACH    5        0    14  0.2911E+03  0.2037E+00  0.2800E+00  0.0000E+00  0.2037E+00  0.1314E+00  0.4192E+00  0.1733E+02  0.7270E-02  0.8151E-02  0.1075E-02  0.1064E-02  0.2125E+02  0.2922E+02  0.0000E+00  0.0000E+00  0.0000E+00  0.0000E+00  0.1801E-02  0.7427E-02  0.0000E+00  0.0000E+00  0.0000E+00  0.0000E+00  0.1275E+00  0.5261E+00  0.0000E+00  0.0000E+00  0.0000E+00  0.0000E+00  0.0000E+00  0.0000E+00  0.0000E+00  0.0000E+00  0.0000E+00  0.0000E+00  0.0000E+00  0.0000E+00  0.0000E+00  0.0000E+00  0.0000E+00  0.0000E+00  0.0000E+00
REACH    1        0    15  0.7646E+02  0.6320E-01  0.8233E-01  0.0000E+00  0.6320E-01  0.4936E-08  0.4936E-08  0.6940E-06  0.4631E-05  0.0000E+00  0.1389E-04  0.1298E-04  0.7122E+01  0.9278E+01  0.0000E+00  0.0000E+00  0.0000E+00  0.0000E+00  0.4638E-05  0.0000E+00  0.0000E+00  0.0000E+00  0.0000E+00  0.0000E+00  0.0000E+00  0.2134E-01  0.0000E+00  0.0000E+00  0.0000E+00  0.0000E+00  0.0000E+00  0.0000E+00  0.0000E+00  0.0000E+00  0.0000E+00  0.0000E+00  0.0000E+00  0.0000E+00  0.0000E+00  0.0000E+00  0.0000E+00  0.0000E+00  0.0000E+00
REACH    2        0    15  0.8510E+02  0.5493E-01  0.7506E-01  0.0000E+00  0.5493E-01  0.6167E-08  0.6167E-08  0.9509E-06  0.6357E-05  0.7071E-05  0.1907E-04  0.1870E-04  0.5652E+01  0.7724E+01  0.0000E+00  0.0000E+00  0.0000E+00  0.0000E+00  0.6365E-05  0.2609E-04  0.0000E+00  0.0000E+00  0.0000E+00  0.0000E+00  0.0000E+00  0.1946E-01  0.0000E+00  0.0000E+00  0.0000E+00  0.0000E+00  0.0000E+00  0.0000E+00  0.0000E+00  0.0000E+00  0.0000E+00  0.0000E+00  0.0000E+00  0.0000E+00  0.0000E+00  0.0000E+00  0.0000E+00  0.0000E+00  0.0000E+00
REACH    3        0    15  0.1958E+03  0.1675E+00  0.1646E+00  0.2629E-02  0.1489E+00  0.2893E-03  0.1284E+00  0.9034E+01  0.3993E-02  0.3193E-02  0.6857E-03  0.4834E-03  0.1819E+02  0.1787E+02  0.0000E+00  0.0000E+00  0.0000E+00  0.0000E+00  0.2844E-03  0.8382E-03  0.0000E+00  0.0000E+00  0.0000E+00  0.0000E+00  0.4080E-01  0.1203E+00  0.0000E+00  0.0000E+00  0.0000E+00  0.0000E+00  0.0000E+00  0.0000E+00  0.0000E+00  0.0000E+00  0.0000E+00  0.0000E+00  0.0000E+00  0.0000E+00  0.0000E+00  0.0000E+00  0.0000E+00  0.0000E+00  0.0000E+00
REACH    4        0    15  0.3629E+02  0.2042E-01  0.1917E-01  0.2668E-03  0.1507E-01  0.2161E-03  0.2161E-03  0.1305E+00  0.3675E-02  0.2808E-02  0.5945E-03  0.4005E-03  0.1860E+01  0.1747E+01  0.0000E+00  0.0000E+00  0.0000E+00  0.0000E+00  0.2367E-03  0.6668E-03  0.0000E+00  0.0000E+00  0.0000E+00  0.0000E+00  0.0000E+00  0.4969E-02  0.0000E+00  0.0000E+00  0.0000E+00  0.0000E+00  0.0000E+00  0.0000E+00  0.0000E+00  0.0000E+00  0.0000E+00  0.0000E+00  0.0000E+00  0.0000E+00  0.0000E+00  0.0000E+00  0.0000E+00  0.0000E+00  0.0000E+00
REACH    5        0    15  0.2911E+03  0.1968E+00  0.2763E+00  0.0000E+00  0.1968E+00  0.1287E+00  0.4098E+00  0.1716E+02  0.6005E-02  0.6864E-02  0.8947E-03  0.9014E-03  0.2050E+02  0.2879E+02  0.0000E+00  0.0000E+00  0.0000E+00  0.0000E+00  0.1509E-02  0.6356E-02  0.0000E+00  0.0000E+00  0.0000E+00  0.0000E+00  0.1252E+00  0.5276E+00  0.0000E+00  0.0000E+00  0.0000E+00  0.0000E+00  0.0000E+00  0.0000E+00  0.0000E+00  0.0000E+00  0.0000E+00  0.0000E+00  0.0000E+00  0.0000E+00  0.0000E+00  0.0000E+00  0.0000E+00  0.0000E+00  0.0000E+00
REACH    1        0    16  0.7646E+02  0.6001E-01  0.8133E-01  0.0000E+00  0.6001E-01  0.4936E-08  0.4936E-08  0.7025E-06  0.4631E-05  0.0000E+00  0.1389E-04  0.1353E-04  0.6770E+01  0.9175E+01  0.0000E+00  0.0000E+00  0.0000E+00  0.0000E+00  0.4638E-05  0.0000E+00  0.0000E+00  0.0000E+00  0.0000E+00  0.0000E+00  0.0000E+00  0.2108E-01  0.0000E+00  0.0000E+00  0.0000E+00  0.0000E+00  0.0000E+00  0.0000E+00  0.0000E+00  0.0000E+00  0.0000E+00  0.0000E+00  0.0000E+00  0.0000E+00  0.0000E+00  0.0000E+00  0.0000E+00  0.0000E+00  0.0000E+00
REACH    2        0    16  0.8510E+02  0.5204E-01  0.7403E-01  0.0000E+00  0.5204E-01  0.6167E-08  0.6167E-08  0.9641E-06  0.6357E-05  0.7369E-05  0.1907E-04  0.1950E-04  0.5336E+01  0.7591E+01  0.0000E+00  0.0000E+00  0.0000E+00  0.0000E+00  0.6365E-05  0.2717E-04  0.0000E+00  0.0000E+00  0.0000E+00  0.0000E+00  0.0000E+00  0.1919E-01  0.0000E+00  0.0000E+00  0.0000E+00  0.0000E+00  0.0000E+00  0.0000E+00  0.0000E+00  0.0000E+00  0.0000E+00  0.0000E+00  0.0000E+00  0.0000E+00  0.0000E+00  0.0000E+00  0.0000E+00  0.0000E+00  0.0000E+00
REACH    3        0    16  0.1958E+03  0.1646E+00  0.1617E+00  0.2508E-02  0.1489E+00  0.2358E-03  0.1262E+00  0.9032E+01  0.3257E-02  0.2609E-02  0.5677E-03  0.4011E-03  0.1784E+02  0.1754E+02  0.0000E+00  0.0000E+00  0.0000E+00  0.0000E+00  0.2382E-03  0.7025E-03  0.0000E+00  0.0000E+00  0.0000E+00  0.0000E+00  0.4027E-01  0.1188E+00  0.0000E+00  0.0000E+00  0.0000E+00  0.0000E+00  0.0000E+00  0.0000E+00  0.0000E+00  0.0000E+00  0.0000E+00  0.0000E+00  0.0000E+00  0.0000E+00  0.0000E+00  0.0000E+00  0.0000E+00  0.0000E+00  0.0000E+00
REACH    4        0    16  0.3629E+02  0.1884E-01  0.1764E-01  0.2544E-03  0.1507E-01  0.1830E-03  0.1830E-03  0.1201E+00  0.3112E-02  0.2375E-02  0.5049E-03  0.3399E-03  0.1694E+01  0.1586E+01  0.0000E+00  0.0000E+00  0.0000E+00  0.0000E+00  0.2010E-03  0.5647E-03  0.0000E+00  0.0000E+00  0.0000E+00  0.0000E+00  0.0000E+00  0.4573E-02  0.0000E+00  0.0000E+00  0.0000E+00  0.0000E+00  0.0000E+00  0.0000E+00  0.0000E+00  0.0000E+00  0.0000E+00  0.0000E+00  0.0000E+00  0.0000E+00  0.0000E+00  0.0000E+00  0.0000E+00  0.0000E+00  0.0000E+00
REACH    5        0    16  0.2911E+03  0.1910E+00  0.2725E+00  0.0000E+00  0.1910E+00  0.1264E+00  0.4008E+00  0.1702E+02  0.4987E-02  0.5798E-02  0.7519E-03  0.7711E-03  0.1988E+02  0.2836E+02  0.0000E+00  0.0000E+00  0.0000E+00  0.0000E+00  0.1271E-02  0.5439E-02  0.0000E+00  0.0000E+00  0.0000E+00  0.0000E+00  0.1233E+00  0.5279E+00  0.0000E+00  0.0000E+00  0.0000E+00  0.0000E+00  0.0000E+00  0.0000E+00  0.0000E+00  0.0000E+00  0.0000E+00  0.0000E+00  0.0000E+00  0.0000E+00  0.0000E+00  0.0000E+00  0.0000E+00  0.0000E+00  0.0000E+00
REACH    1        0    17  0.7646E+02  0.5706E-01  0.8025E-01  0.0000E+00  0.5706E-01  0.4936E-08  0.4936E-08  0.7119E-06  0.4631E-05  0.0000E+00  0.1389E-04  0.1426E-04  0.6444E+01  0.9062E+01  0.0000E+00  0.0000E+00  0.0000E+00  0.0000E+00  0.4638E-05  0.0000E+00  0.0000E+00  0.0000E+00  0.0000E+00  0.0000E+00  0.0000E+00  0.2080E-01  0.0000E+00  0.0000E+00  0.0000E+00  0.0000E+00  0.0000E+00  0.0000E+00  0.0000E+00  0.0000E+00  0.0000E+00  0.0000E+00  0.0000E+00  0.0000E+00  0.0000E+00  0.0000E+00  0.0000E+00  0.0000E+00  0.0000E+00
REACH    2        0    17  0.8510E+02  0.4939E-01  0.7294E-01  0.0000E+00  0.4939E-01  0.6167E-08  0.6167E-08  0.9786E-06  0.6357E-05  0.7714E-05  0.1907E-04  0.2055E-04  0.5049E+01  0.7457E+01  0.0000E+00  0.0000E+00  0.0000E+00  0.0000E+00  0.6365E-05  0.2820E-04  0.0000E+00  0.0000E+00  0.0000E+00  0.0000E+00  0.0000E+00  0.1891E-01  0.0000E+00  0.0000E+00  0.0000E+00  0.0000E+00  0.0000E+00  0.0000E+00  0.0000E+00  0.0000E+00  0.0000E+00  0.0000E+00  0.0000E+00  0.0000E+00  0.0000E+00  0.0000E+00  0.0000E+00  0.0000E+00  0.0000E+00
REACH    3        0    17  0.1958E+03  0.1616E+00  0.1595E+00  0.1829E-02  0.1489E+00  0.1922E-03  0.1244E+00  0.9030E+01  0.2657E-02  0.2155E-02  0.4722E-03  0.3401E-03  0.1749E+02  0.1726E+02  0.0000E+00  0.0000E+00  0.0000E+00  0.0000E+00  0.2008E-03  0.5944E-03  0.0000E+00  0.0000E+00  0.0000E+00  0.0000E+00  0.3971E-01  0.1175E+00  0.0000E+00  0.0000E+00  0.0000E+00  0.0000E+00  0.0000E+00  0.0000E+00  0.0000E+00  0.0000E+00  0.0000E+00  0.0000E+00  0.0000E+00  0.0000E+00  0.0000E+00  0.0000E+00  0.0000E+00  0.0000E+00  0.0000E+00
REACH    4        0    17  0.3629E+02  0.1744E-01  0.1635E-01  0.1855E-03  0.1507E-01  0.1550E-03  0.1550E-03  0.1097E+00  0.2636E-02  0.2032E-02  0.4291E-03  0.2936E-03  0.1548E+01  0.1451E+01  0.0000E+00  0.0000E+00  0.0000E+00  0.0000E+00  0.1707E-03  0.4802E-03  0.0000E+00  0.0000E+00  0.0000E+00  0.0000E+00  0.0000E+00  0.4239E-02  0.0000E+00  0.0000E+00  0.0000E+00  0.0000E+00  0.0000E+00  0.0000E+00  0.0000E+00  0.0000E+00  0.0000E+00  0.0000E+00  0.0000E+00  0.0000E+00  0.0000E+00  0.0000E+00  0.0000E+00  0.0000E+00  0.0000E+00
REACH    5        0    17  0.2911E+03  0.1862E+00  0.2687E+00  0.0000E+00  0.1862E+00  0.1246E+00  0.3924E+00  0.1690E+02  0.4190E-02  0.4968E-02  0.6446E-03  0.6788E-03  0.1937E+02  0.2794E+02  0.0000E+00  0.0000E+00  0.0000E+00  0.0000E+00  0.1078E-02  0.4667E-02  0.0000E+00  0.0000E+00  0.0000E+00  0.0000E+00  0.1218E+00  0.5271E+00  0.0000E+00  0.0000E+00  0.0000E+00  0.0000E+00  0.0000E+00  0.0000E+00  0.0000E+00  0.0000E+00  0.0000E+00  0.0000E+00  0.0000E+00  0.0000E+00  0.0000E+00  0.0000E+00  0.0000E+00  0.0000E+00  0.0000E+00
REACH    1        0    18  0.7646E+02  0.5433E-01  0.7910E-01  0.0000E+00  0.5433E-01  0.4936E-08  0.4936E-08  0.7223E-06  0.4631E-05  0.0000E+00  0.1389E-04  0.1463E-04  0.6140E+01  0.8939E+01  0.0000E+00  0.0000E+00  0.0000E+00  0.0000E+00  0.4638E-05  0.0000E+00  0.0000E+00  0.0000E+00  0.0000E+00  0.0000E+00  0.0000E+00  0.2050E-01  0.0000E+00  0.0000E+00  0.0000E+00  0.0000E+00  0.0000E+00  0.0000E+00  0.0000E+00  0.0000E+00  0.0000E+00  0.0000E+00  0.0000E+00  0.0000E+00  0.0000E+00  0.0000E+00  0.0000E+00  0.0000E+00  0.0000E+00
REACH    2        0    18  0.8510E+02  0.4695E-01  0.7178E-01  0.0000E+00  0.4695E-01  0.6167E-08  0.6167E-08  0.9943E-06  0.6357E-05  0.7946E-05  0.1907E-04  0.2109E-04  0.4788E+01  0.7319E+01  0.0000E+00  0.0000E+00  0.0000E+00  0.0000E+00  0.6365E-05  0.2919E-04  0.0000E+00  0.0000E+00  0.0000E+00  0.0000E+00  0.0000E+00  0.1861E-01  0.0000E+00  0.0000E+00  0.0000E+00  0.0000E+00  0.0000E+00  0.0000E+00  0.0000E+00  0.0000E+00  0.0000E+00  0.0000E+00  0.0000E+00  0.0000E+00  0.0000E+00  0.0000E+00  0.0000E+00  0.0000E+00  0.0000E+00
REACH    3        0    18  0.1958E+03  0.1586E+00  0.1563E+00  0.1988E-02  0.1489E+00  0.1567E-03  0.1219E+00  0.9028E+01  0.2168E-02  0.1747E-02  0.3939E-03  0.2808E-03  0.1714E+02  0.1690E+02  0.0000E+00  0.0000E+00  0.0000E+00  0.0000E+00  0.1704E-03  0.5038E-03  0.0000E+00  0.0000E+00  0.0000E+00  0.0000E+00  0.3911E-01  0.1156E+00  0.0000E+00  0.0000E+00  0.0000E+00  0.0000E+00  0.0000E+00  0.0000E+00  0.0000E+00  0.0000E+00  0.0000E+00  0.0000E+00  0.0000E+00  0.0000E+00  0.0000E+00  0.0000E+00  0.0000E+00  0.0000E+00  0.0000E+00
REACH    4        0    18  0.3629E+02  0.1620E-01  0.1513E-01  0.2016E-03  0.1507E-01  0.1313E-03  0.1313E-03  0.1004E+00  0.2233E-02  0.1706E-02  0.3648E-03  0.2465E-03  0.1420E+01  0.1327E+01  0.0000E+00  0.0000E+00  0.0000E+00  0.0000E+00  0.1450E-03  0.4065E-03  0.0000E+00  0.0000E+00  0.0000E+00  0.0000E+00  0.0000E+00  0.3922E-02  0.0000E+00  0.0000E+00  0.0000E+00  0.0000E+00  0.0000E+00  0.0000E+00  0.0000E+00  0.0000E+00  0.0000E+00  0.0000E+00  0.0000E+00  0.0000E+00  0.0000E+00  0.0000E+00  0.0000E+00  0.0000E+00  0.0000E+00
REACH    5        0    18  0.2911E+03  0.1808E+00  0.2647E+00  0.0000E+00  0.1808E+00  0.1221E+00  0.4207E+00  0.1839E+02  0.3457E-02  0.4138E-02  0.5381E-03  0.5699E-03  0.1879E+02  0.2751E+02  0.0000E+00  0.0000E+00  0.0000E+00  0.0000E+00  0.9139E-03  0.4015E-02  0.0000E+00  0.0000E+00  0.0000E+00  0.0000E+00  0.1195E+00  0.5251E+00  0.0000E+00  0.0000E+00  0.0000E+00  0.0000E+00  0.0000E+00  0.0000E+00  0.0000E+00  0.0000E+00  0.0000E+00  0.0000E+00  0.0000E+00  0.0000E+00  0.0000E+00  0.0000E+00  0.0000E+00  0.0000E+00  0.0000E+00
REACH    1        0    19  0.7646E+02  0.5179E-01  0.7787E-01  0.0000E+00  0.5179E-01  0.4936E-08  0.4936E-08  0.7337E-06  0.4631E-05  0.0000E+00  0.1389E-04  0.1469E-04  0.5857E+01  0.8806E+01  0.0000E+00  0.0000E+00  0.0000E+00  0.0000E+00  0.4638E-05  0.2092E-04  0.0000E+00  0.0000E+00  0.0000E+00  0.0000E+00  0.0000E+00  0.2018E-01  0.0000E+00  0.0000E+00  0.0000E+00  0.0000E+00  0.0000E+00  0.0000E+00  0.0000E+00  0.0000E+00  0.0000E+00  0.0000E+00  0.0000E+00  0.0000E+00  0.0000E+00  0.0000E+00  0.0000E+00  0.0000E+00  0.0000E+00
REACH    2        0    19  0.8510E+02  0.4470E-01  0.7057E-01  0.0000E+00  0.4470E-01  0.6167E-08  0.6167E-08  0.1011E-05  0.6357E-05  0.8078E-05  0.1907E-04  0.2117E-04  0.4547E+01  0.7180E+01  0.0000E+00  0.0000E+00  0.0000E+00  0.0000E+00  0.6365E-05  0.3015E-04  0.0000E+00  0.0000E+00  0.0000E+00  0.0000E+00  0.0000E+00  0.1829E-01  0.0000E+00  0.0000E+00  0.0000E+00  0.0000E+00  0.0000E+00  0.0000E+00  0.0000E+00  0.0000E+00  0.0000E+00  0.0000E+00  0.0000E+00  0.0000E+00  0.0000E+00  0.0000E+00  0.0000E+00  0.0000E+00  0.0000E+00
REACH    3        0    19  0.1958E+03  0.1556E+00  0.1521E+00  0.3167E-02  0.1489E+00  0.1277E-03  0.1186E+00  0.9027E+01  0.1770E-02  0.1392E-02  0.3294E-03  0.2264E-03  0.1680E+02  0.1642E+02  0.0000E+00  0.0000E+00  0.0000E+00  0.0000E+00  0.1667E-03  0.4889E-03  0.0000E+00  0.0000E+00  0.0000E+00  0.0000E+00  0.3848E-01  0.1128E+00  0.0000E+00  0.0000E+00  0.0000E+00  0.0000E+00  0.0000E+00  0.0000E+00  0.0000E+00  0.0000E+00  0.0000E+00  0.0000E+00  0.0000E+00  0.0000E+00  0.0000E+00  0.0000E+00  0.0000E+00  0.0000E+00  0.0000E+00
REACH    4        0    19  0.3629E+02  0.1509E-01  0.1424E-01  0.1963E-04  0.1507E-01  0.1112E-03  0.1112E-03  0.9035E-01  0.1892E-02  0.1437E-02  0.3104E-03  0.2060E-03  0.1308E+01  0.1234E+01  0.0000E+00  0.0000E+00  0.0000E+00  0.0000E+00  0.1233E-03  0.3492E-03  0.0000E+00  0.0000E+00  0.0000E+00  0.0000E+00  0.0000E+00  0.3691E-02  0.0000E+00  0.0000E+00  0.0000E+00  0.0000E+00  0.0000E+00  0.0000E+00  0.0000E+00  0.0000E+00  0.0000E+00  0.0000E+00  0.0000E+00  0.0000E+00  0.0000E+00  0.0000E+00  0.0000E+00  0.0000E+00  0.0000E+00
REACH    5        0    19  0.2911E+03  0.1748E+00  0.2607E+00  0.0000E+00  0.1748E+00  0.1187E+00  0.4112E+00  0.1826E+02  0.2833E-02  0.3400E-02  0.4432E-03  0.4647E-03  0.1815E+02  0.2707E+02  0.0000E+00  0.0000E+00  0.0000E+00  0.0000E+00  0.8416E-03  0.3766E-02  0.0000E+00  0.0000E+00  0.0000E+00  0.0000E+00  0.1165E+00  0.5214E+00  0.0000E+00  0.0000E+00  0.0000E+00  0.0000E+00  0.0000E+00  0.0000E+00  0.0000E+00  0.0000E+00  0.0000E+00  0.0000E+00  0.0000E+00  0.0000E+00  0.0000E+00  0.0000E+00  0.0000E+00  0.0000E+00  0.0000E+00
REACH    1        0    20  0.7646E+02  0.4942E-01  0.7660E-01  0.0000E+00  0.4942E-01  0.4936E-08  0.4936E-08  0.7459E-06  0.4631E-05  0.0000E+00  0.1389E-04  0.1359E-04  0.5592E+01  0.8667E+01  0.0000E+00  0.0000E+00  0.0000E+00  0.0000E+00  0.4638E-05  0.2157E-04  0.0000E+00  0.0000E+00  0.0000E+00  0.0000E+00  0.0000E+00  0.1985E-01  0.0000E+00  0.0000E+00  0.0000E+00  0.0000E+00  0.0000E+00  0.0000E+00  0.0000E+00  0.0000E+00  0.0000E+00  0.0000E+00  0.0000E+00  0.0000E+00  0.0000E+00  0.0000E+00  0.0000E+00  0.0000E+00  0.0000E+00
REACH    2        0    20  0.8510E+02  0.4260E-01  0.6932E-01  0.0000E+00  0.4260E-01  0.6167E-08  0.6167E-08  0.1030E-05  0.6357E-05  0.7856E-05  0.1907E-04  0.1958E-04  0.4325E+01  0.7039E+01  0.0000E+00  0.0000E+00  0.0000E+00  0.0000E+00  0.6365E-05  0.3107E-04  0.0000E+00  0.0000E+00  0.0000E+00  0.0000E+00  0.0000E+00  0.1797E-01  0.0000E+00  0.0000E+00  0.0000E+00  0.0000E+00  0.0000E+00  0.0000E+00  0.0000E+00  0.0000E+00  0.0000E+00  0.0000E+00  0.0000E+00  0.0000E+00  0.0000E+00  0.0000E+00  0.0000E+00  0.0000E+00  0.0000E+00
REACH    3        0    20  0.1958E+03  0.1526E+00  0.1486E+00  0.3644E-02  0.1489E+00  0.1041E-03  0.1159E+00  0.9026E+01  0.1444E-02  0.1068E-02  0.2740E-03  0.1684E-03  0.1645E+02  0.1602E+02  0.0000E+00  0.0000E+00  0.0000E+00  0.0000E+00  0.1474E-03  0.4307E-03  0.0000E+00  0.0000E+00  0.0000E+00  0.0000E+00  0.3782E-01  0.1105E+00  0.0000E+00  0.0000E+00  0.0000E+00  0.0000E+00  0.0000E+00  0.0000E+00  0.0000E+00  0.0000E+00  0.0000E+00  0.0000E+00  0.0000E+00  0.0000E+00  0.0000E+00  0.0000E+00  0.0000E+00  0.0000E+00  0.0000E+00
REACH    4        0    20  0.3629E+02  0.1410E-01  0.1423E-01  0.0000E+00  0.1410E-01  0.9414E-04  0.9414E-04  0.7657E-01  0.1603E-02  0.1229E-02  0.2644E-03  0.1684E-03  0.1208E+01  0.1220E+01  0.0000E+00  0.0000E+00  0.0000E+00  0.0000E+00  0.1049E-03  0.3178E-03  0.0000E+00  0.0000E+00  0.0000E+00  0.0000E+00  0.0000E+00  0.3689E-02  0.0000E+00  0.0000E+00  0.0000E+00  0.0000E+00  0.0000E+00  0.0000E+00  0.0000E+00  0.0000E+00  0.0000E+00  0.0000E+00  0.0000E+00  0.0000E+00  0.0000E+00  0.0000E+00  0.0000E+00  0.0000E+00  0.0000E+00
REACH    5        0    20  0.2911E+03  0.1705E+00  0.2567E+00  0.0000E+00  0.1705E+00  0.1160E+00  0.4026E+00  0.1816E+02  0.2300E-02  0.2630E-02  0.3476E-03  0.3302E-03  0.1768E+02  0.2661E+02  0.0000E+00  0.0000E+00  0.0000E+00  0.0000E+00  0.7521E-03  0.3396E-02  0.0000E+00  0.0000E+00  0.0000E+00  0.0000E+00  0.1142E+00  0.5156E+00  0.0000E+00  0.0000E+00  0.0000E+00  0.0000E+00  0.0000E+00  0.0000E+00  0.0000E+00  0.0000E+00  0.0000E+00  0.0000E+00  0.0000E+00  0.0000E+00  0.0000E+00  0.0000E+00  0.0000E+00  0.0000E+00  0.0000E+00
REACH    1        0    21  0.7646E+02  0.4719E-01  0.7529E-01  0.0000E+00  0.4719E-01  0.4936E-08  0.4936E-08  0.7589E-06  0.4631E-05  0.0000E+00  0.1389E-04  0.1505E-04  0.5342E+01  0.8523E+01  0.0000E+00  0.0000E+00  0.0000E+00  0.0000E+00  0.4638E-05  0.2220E-04  0.0000E+00  0.0000E+00  0.0000E+00  0.0000E+00  0.0000E+00  0.1951E-01  0.0000E+00  0.0000E+00  0.0000E+00  0.0000E+00  0.0000E+00  0.0000E+00  0.0000E+00  0.0000E+00  0.0000E+00  0.0000E+00  0.0000E+00  0.0000E+00  0.0000E+00  0.0000E+00  0.0000E+00  0.0000E+00  0.0000E+00
REACH    2        0    21  0.8510E+02  0.4063E-01  0.6804E-01  0.0000E+00  0.4063E-01  0.6167E-08  0.6167E-08  0.1049E-05  0.6357E-05  0.8407E-05  0.1907E-04  0.2169E-04  0.4119E+01  0.6898E+01  0.0000E+00  0.0000E+00  0.0000E+00  0.0000E+00  0.6365E-05  0.3197E-04  0.0000E+00  0.0000E+00  0.0000E+00  0.0000E+00  0.0000E+00  0.1764E-01  0.0000E+00  0.0000E+00  0.0000E+00  0.0000E+00  0.0000E+00  0.0000E+00  0.0000E+00  0.0000E+00  0.0000E+00  0.0000E+00  0.0000E+00  0.0000E+00  0.0000E+00  0.0000E+00  0.0000E+00  0.0000E+00  0.0000E+00
REACH    3        0    21  0.1958E+03  0.1495E+00  0.1485E+00  0.5991E-03  0.1489E+00  0.8490E-04  0.1158E+00  0.9025E+01  0.1180E-02  0.9259E-03  0.2347E-03  0.1584E-03  0.1611E+02  0.1600E+02  0.0000E+00  0.0000E+00  0.0000E+00  0.0000E+00  0.1320E-03  0.3933E-03  0.0000E+00  0.0000E+00  0.0000E+00  0.0000E+00  0.3715E-01  0.1107E+00  0.0000E+00  0.0000E+00  0.0000E+00  0.0000E+00  0.0000E+00  0.0000E+00  0.0000E+00  0.0000E+00  0.0000E+00  0.0000E+00  0.0000E+00  0.0000E+00  0.0000E+00  0.0000E+00  0.0000E+00  0.0000E+00  0.0000E+00
REACH    4        0    21  0.3629E+02  0.1321E-01  0.1418E-01  0.0000E+00  0.1321E-01  0.7973E-04  0.7973E-04  0.6506E-01  0.1358E-02  0.1152E-02  0.2254E-03  0.1644E-03  0.1120E+01  0.1203E+01  0.0000E+00  0.0000E+00  0.0000E+00  0.0000E+00  0.8935E-04  0.2879E-03  0.0000E+00  0.0000E+00  0.0000E+00  0.0000E+00  0.0000E+00  0.3676E-02  0.0000E+00  0.0000E+00  0.0000E+00  0.0000E+00  0.0000E+00  0.0000E+00  0.0000E+00  0.0000E+00  0.0000E+00  0.0000E+00  0.0000E+00  0.0000E+00  0.0000E+00  0.0000E+00  0.0000E+00  0.0000E+00  0.0000E+00
REACH    5        0    21  0.2911E+03  0.1698E+00  0.2528E+00  0.0000E+00  0.1698E+00  0.1159E+00  0.3968E+00  0.1817E+02  0.2081E-02  0.2447E-02  0.3336E-03  0.3374E-03  0.1759E+02  0.2619E+02  0.0000E+00  0.0000E+00  0.0000E+00  0.0000E+00  0.6849E-03  0.3058E-02  0.0000E+00  0.0000E+00  0.0000E+00  0.0000E+00  0.1144E+00  0.5109E+00  0.0000E+00  0.0000E+00  0.0000E+00  0.0000E+00  0.0000E+00  0.0000E+00  0.0000E+00  0.0000E+00  0.0000E+00  0.0000E+00  0.0000E+00  0.0000E+00  0.0000E+00  0.0000E+00  0.0000E+00  0.0000E+00  0.0000E+00
REACH    1        0    22  0.7646E+02  0.4509E-01  0.7394E-01  0.0000E+00  0.4509E-01  0.4936E-08  0.4936E-08  0.7727E-06  0.4631E-05  0.0000E+00  0.1389E-04  0.1527E-04  0.5107E+01  0.8374E+01  0.0000E+00  0.0000E+00  0.0000E+00  0.0000E+00  0.4638E-05  0.2282E-04  0.0000E+00  0.0000E+00  0.0000E+00  0.0000E+00  0.0000E+00  0.1917E-01  0.0000E+00  0.0000E+00  0.0000E+00  0.0000E+00  0.0000E+00  0.0000E+00  0.0000E+00  0.0000E+00  0.0000E+00  0.0000E+00  0.0000E+00  0.0000E+00  0.0000E+00  0.0000E+00  0.0000E+00  0.0000E+00  0.0000E+00
REACH    2        0    22  0.8510E+02  0.3880E-01  0.6674E-01  0.0000E+00  0.3880E-01  0.6167E-08  0.6167E-08  0.1070E-05  0.6357E-05  0.8576E-05  0.1907E-04  0.2199E-04  0.3928E+01  0.6756E+01  0.0000E+00  0.0000E+00  0.0000E+00  0.0000E+00  0.6365E-05  0.3285E-04  0.0000E+00  0.0000E+00  0.0000E+00  0.0000E+00  0.0000E+00  0.1730E-01  0.0000E+00  0.0000E+00  0.0000E+00  0.0000E+00  0.0000E+00  0.0000E+00  0.0000E+00  0.0000E+00  0.0000E+00  0.0000E+00  0.0000E+00  0.0000E+00  0.0000E+00  0.0000E+00  0.0000E+00  0.0000E+00  0.0000E+00
REACH    3        0    22  0.1958E+03  0.1465E+00  0.1484E+00  0.0000E+00  0.1465E+00  0.6921E-04  0.1157E+00  0.9025E+01  0.9640E-03  0.7662E-03  0.2002E-03  0.1360E-03  0.1577E+02  0.1598E+02  0.0000E+00  0.0000E+00  0.0000E+00  0.0000E+00  0.1196E-03  0.3636E-03  0.0000E+00  0.0000E+00  0.0000E+00  0.0000E+00  0.3646E-01  0.1109E+00  0.0000E+00  0.0000E+00  0.0000E+00  0.0000E+00  0.0000E+00  0.0000E+00  0.0000E+00  0.0000E+00  0.0000E+00  0.0000E+00  0.0000E+00  0.0000E+00  0.0000E+00  0.0000E+00  0.0000E+00  0.0000E+00  0.0000E+00
REACH    4        0    22  0.3629E+02  0.1240E-01  0.1410E-01  0.0000E+00  0.1240E-01  0.6752E-04  0.6752E-04  0.5542E-01  0.1150E-02  0.1026E-02  0.1923E-03  0.1466E-03  0.1042E+01  0.1185E+01  0.0000E+00  0.0000E+00  0.0000E+00  0.0000E+00  0.7616E-04  0.2598E-03  0.0000E+00  0.0000E+00  0.0000E+00  0.0000E+00  0.0000E+00  0.3655E-02  0.0000E+00  0.0000E+00  0.0000E+00  0.0000E+00  0.0000E+00  0.0000E+00  0.0000E+00  0.0000E+00  0.0000E+00  0.0000E+00  0.0000E+00  0.0000E+00  0.0000E+00  0.0000E+00  0.0000E+00  0.0000E+00  0.0000E+00
REACH    5        0    22  0.2911E+03  0.1690E+00  0.2490E+00  0.0000E+00  0.1690E+00  0.1158E+00  0.3912E+00  0.1818E+02  0.1796E-02  0.2075E-02  0.2935E-03  0.2898E-03  0.1751E+02  0.2579E+02  0.0000E+00  0.0000E+00  0.0000E+00  0.0000E+00  0.6271E-03  0.2771E-02  0.0000E+00  0.0000E+00  0.0000E+00  0.0000E+00  0.1145E+00  0.5061E+00  0.0000E+00  0.0000E+00  0.0000E+00  0.0000E+00  0.0000E+00  0.0000E+00  0.0000E+00  0.0000E+00  0.0000E+00  0.0000E+00  0.0000E+00  0.0000E+00  0.0000E+00  0.0000E+00  0.0000E+00  0.0000E+00  0.0000E+00
REACH    1        0    23  0.7646E+02  0.4312E-01  0.7256E-01  0.0000E+00  0.4312E-01  0.4936E-08  0.4936E-08  0.7874E-06  0.4631E-05  0.0000E+00  0.1389E-04  0.1560E-04  0.4885E+01  0.8220E+01  0.0000E+00  0.0000E+00  0.0000E+00  0.0000E+00  0.4638E-05  0.2342E-04  0.0000E+00  0.0000E+00  0.0000E+00  0.0000E+00  0.0000E+00  0.1881E-01  0.0000E+00  0.0000E+00  0.0000E+00  0.0000E+00  0.0000E+00  0.0000E+00  0.0000E+00  0.0000E+00  0.0000E+00  0.0000E+00  0.0000E+00  0.0000E+00  0.0000E+00  0.0000E+00  0.0000E+00  0.0000E+00  0.0000E+00
REACH    2        0    23  0.8510E+02  0.3707E-01  0.6541E-01  0.0000E+00  0.3707E-01  0.6167E-08  0.6167E-08  0.1091E-05  0.6357E-05  0.8774E-05  0.1907E-04  0.2245E-04  0.3748E+01  0.6614E+01  0.0000E+00  0.0000E+00  0.0000E+00  0.0000E+00  0.6365E-05  0.3370E-04  0.0000E+00  0.0000E+00  0.0000E+00  0.0000E+00  0.0000E+00  0.1695E-01  0.0000E+00  0.0000E+00  0.0000E+00  0.0000E+00  0.0000E+00  0.0000E+00  0.0000E+00  0.0000E+00  0.0000E+00  0.0000E+00  0.0000E+00  0.0000E+00  0.0000E+00  0.0000E+00  0.0000E+00  0.0000E+00  0.0000E+00
REACH    3        0    23  0.1958E+03  0.1434E+00  0.1482E+00  0.0000E+00  0.1434E+00  0.5642E-04  0.1155E+00  0.9024E+01  0.7881E-03  0.6371E-03  0.1724E-03  0.1189E-03  0.1542E+02  0.1594E+02  0.0000E+00  0.0000E+00  0.0000E+00  0.0000E+00  0.1098E-03  0.3403E-03  0.0000E+00  0.0000E+00  0.0000E+00  0.0000E+00  0.3576E-01  0.1109E+00  0.0000E+00  0.0000E+00  0.0000E+00  0.0000E+00  0.0000E+00  0.0000E+00  0.0000E+00  0.0000E+00  0.0000E+00  0.0000E+00  0.0000E+00  0.0000E+00  0.0000E+00  0.0000E+00  0.0000E+00  0.0000E+00  0.0000E+00
REACH    4        0    23  0.3629E+02  0.1167E-01  0.1399E-01  0.0000E+00  0.1167E-01  0.5718E-04  0.5718E-04  0.4731E-01  0.9746E-03  0.9139E-03  0.1643E-03  0.1314E-03  0.9727E+00  0.1166E+01  0.0000E+00  0.0000E+00  0.0000E+00  0.0000E+00  0.6499E-04  0.2337E-03  0.0000E+00  0.0000E+00  0.0000E+00  0.0000E+00  0.0000E+00  0.3626E-02  0.0000E+00  0.0000E+00  0.0000E+00  0.0000E+00  0.0000E+00  0.0000E+00  0.0000E+00  0.0000E+00  0.0000E+00  0.0000E+00  0.0000E+00  0.0000E+00  0.0000E+00  0.0000E+00  0.0000E+00  0.0000E+00  0.0000E+00
REACH    5        0    23  0.2911E+03  0.1682E+00  0.2454E+00  0.0000E+00  0.1682E+00  0.1156E+00  0.3856E+00  0.1819E+02  0.1555E-02  0.1774E-02  0.2611E-03  0.2542E-03  0.1742E+02  0.2541E+02  0.0000E+00  0.0000E+00  0.0000E+00  0.0000E+00  0.5776E-03  0.2528E-02  0.0000E+00  0.0000E+00  0.0000E+00  0.0000E+00  0.1145E+00  0.5012E+00  0.0000E+00  0.0000E+00  0.0000E+00  0.0000E+00  0.0000E+00  0.0000E+00  0.0000E+00  0.0000E+00  0.0000E+00  0.0000E+00  0.0000E+00  0.0000E+00  0.0000E+00  0.0000E+00  0.0000E+00  0.0000E+00  0.0000E+00
REACH    1        0    24  0.7646E+02  0.4882E-01  0.7150E-01  0.0000E+00  0.4882E-01  0.1096E+00  0.1096E+00  0.1775E+02  0.7732E+00  0.3397E+01  0.1555E+00  0.6832E+00  0.1455E+02  0.1783E+02  0.0000E+00  0.0000E+00  0.0000E+00  0.0000E+00  0.5276E-01  0.0000E+00  0.8876E+01  0.0000E+00  0.1887E+00  0.0000E+00  0.2964E+01  0.1302E+02  0.0000E+00  0.0000E+00  0.0000E+00  0.0000E+00  0.0000E+00  0.0000E+00  0.0000E+00  0.0000E+00  0.0000E+00  0.0000E+00  0.0000E+00  0.0000E+00  0.0000E+00  0.0000E+00  0.0000E+00  0.0000E+00  0.0000E+00
REACH    2        0    24  0.8510E+02  0.3544E-01  0.6407E-01  0.0000E+00  0.3544E-01  0.6167E-08  0.6167E-08  0.1114E-05  0.6357E-05  0.9358E-05  0.1907E-04  0.2475E-04  0.3580E+01  0.6472E+01  0.0000E+00  0.0000E+00  0.0000E+00  0.0000E+00  0.6365E-05  0.3453E-04  0.0000E+00  0.0000E+00  0.0000E+00  0.0000E+00  0.0000E+00  0.1661E-01  0.0000E+00  0.0000E+00  0.0000E+00  0.0000E+00  0.0000E+00  0.0000E+00  0.0000E+00  0.0000E+00  0.0000E+00  0.0000E+00  0.0000E+00  0.0000E+00  0.0000E+00  0.0000E+00  0.0000E+00  0.0000E+00  0.0000E+00
REACH    3        0    24  0.1958E+03  0.1407E+00  0.1478E+00  0.0000E+00  0.1407E+00  0.1097E+00  0.1693E+00  0.1325E+02  0.3398E+01  0.2907E+01  0.6833E+00  0.5155E+00  0.2485E+02  0.2612E+02  0.0000E+00  0.0000E+00  0.0000E+00  0.0000E+00  0.7796E-04  0.2458E-03  0.0000E+00  0.0000E+00  0.0000E+00  0.0000E+00  0.1304E+02  0.4110E+02  0.0000E+00  0.0000E+00  0.0000E+00  0.0000E+00  0.0000E+00  0.0000E+00  0.0000E+00  0.0000E+00  0.0000E+00  0.0000E+00  0.0000E+00  0.0000E+00  0.0000E+00  0.0000E+00  0.0000E+00  0.0000E+00  0.0000E+00
REACH    4        0    24  0.3629E+02  0.1101E-01  0.1386E-01  0.0000E+00  0.1101E-01  0.4843E-04  0.4843E-04  0.4045E-01  0.8259E-03  0.8465E-03  0.1406E-03  0.1271E-03  0.9104E+00  0.1146E+01  0.0000E+00  0.0000E+00  0.0000E+00  0.0000E+00  0.5553E-04  0.2097E-03  0.0000E+00  0.0000E+00  0.0000E+00  0.0000E+00  0.0000E+00  0.3592E-02  0.0000E+00  0.0000E+00  0.0000E+00  0.0000E+00  0.0000E+00  0.0000E+00  0.0000E+00  0.0000E+00  0.0000E+00  0.0000E+00  0.0000E+00  0.0000E+00  0.0000E+00  0.0000E+00  0.0000E+00  0.0000E+00  0.0000E+00
REACH    5        0    24  0.2911E+03  0.1673E+00  0.2419E+00  0.0000E+00  0.1673E+00  0.1693E+00  0.3985E+00  0.1907E+02  0.2908E+01  0.3425E+01  0.5157E+00  0.5354E+00  0.2754E+02  0.3983E+02  0.0000E+00  0.0000E+00  0.0000E+00  0.0000E+00  0.4591E-03  0.1992E-02  0.0000E+00  0.0000E+00  0.0000E+00  0.0000E+00  0.4110E+02  0.1783E+03  0.0000E+00  0.0000E+00  0.0000E+00  0.0000E+00  0.0000E+00  0.0000E+00  0.0000E+00  0.0000E+00  0.0000E+00  0.0000E+00  0.0000E+00  0.0000E+00  0.0000E+00  0.0000E+00  0.0000E+00  0.0000E+00  0.0000E+00
REACH    1        0    25  0.7646E+02  0.9613E-01  0.7417E-01  0.1639E-02  0.9273E-01  0.1864E+01  0.1864E+01  0.2909E+03  0.5577E+01  0.1188E+02  0.9025E+00  0.2075E+01  0.2342E+02  0.1181E+02  0.0000E+00  0.0000E+00  0.0000E+00  0.0000E+00  0.9119E-01  0.0000E+00  0.3646E+02  0.0000E+00  0.4077E+03  0.0000E+00  0.1559E+02  0.3609E+02  0.0000E+00  0.0000E+00  0.0000E+00  0.0000E+00  0.0000E+00  0.0000E+00  0.0000E+00  0.0000E+00  0.0000E+00  0.0000E+00  0.0000E+00  0.0000E+00  0.0000E+00  0.0000E+00  0.0000E+00  0.0000E+00  0.0000E+00
REACH    2        0    25  0.8510E+02  0.9514E-01  0.6904E-01  0.1585E-02  0.8970E-01  0.6167E-08  0.6167E-08  0.1034E-05  0.6357E-05  0.0000E+00  0.1907E-04  0.1033E-04  0.1626E+02  0.1180E+02  0.0000E+00  0.0000E+00  0.0000E+00  0.0000E+00  0.6365E-05  0.0000E+00  0.0000E+00  0.0000E+00  0.0000E+00  0.0000E+00  0.0000E+00  0.1790E-01  0.0000E+00  0.0000E+00  0.0000E+00  0.0000E+00  0.0000E+00  0.0000E+00  0.0000E+00  0.0000E+00  0.0000E+00  0.0000E+00  0.0000E+00  0.0000E+00  0.0000E+00  0.0000E+00  0.0000E+00  0.0000E+00  0.0000E+00
REACH    3        0    25  0.1958E+03  0.1687E+00  0.1650E+00  0.2604E-02  0.1489E+00  0.2916E+01  0.1811E+01  0.1270E+03  0.1399E+02  0.2558E+02  0.2429E+01  0.4434E+01  0.3478E+02  0.3078E+02  0.0000E+00  0.0000E+00  0.0000E+00  0.0000E+00  0.3706E-01  0.0000E+00  0.4921E+02  0.0000E+00  0.7472E+02  0.0000E+00  0.4148E+02  0.1217E+03  0.0000E+00  0.0000E+00  0.0000E+00  0.0000E+00  0.0000E+00  0.0000E+00  0.0000E+00  0.0000E+00  0.0000E+00  0.0000E+00  0.0000E+00  0.0000E+00  0.0000E+00  0.0000E+00  0.0000E+00  0.0000E+00  0.0000E+00
REACH    4        0    25  0.3629E+02  0.3470E-01  0.3320E-01  0.2655E-03  0.1515E-01  0.5299E+00  0.5299E+00  0.1848E+03  0.2920E+01  0.8380E+01  0.4511E+00  0.1295E+01  0.1366E+02  0.2127E+00  0.0000E+00  0.0000E+00  0.0000E+00  0.0000E+00  0.4417E-01  0.0000E+00  0.4962E+02  0.0000E+00  0.1395E+03  0.0000E+00  0.7415E+01  0.2128E+02  0.0000E+00  0.0000E+00  0.0000E+00  0.0000E+00  0.0000E+00  0.0000E+00  0.0000E+00  0.0000E+00  0.0000E+00  0.0000E+00  0.0000E+00  0.0000E+00  0.0000E+00  0.0000E+00  0.0000E+00  0.0000E+00  0.0000E+00
REACH    5        0    25  0.2911E+03  0.2364E+00  0.2416E+00  0.0000E+00  0.2364E+00  0.2341E+01  0.1042E+01  0.4990E+02  0.3396E+02  0.2888E+02  0.5729E+01  0.4368E+01  0.4323E+02  0.4418E+02  0.0000E+00  0.0000E+00  0.0000E+00  0.0000E+00  0.3614E-05  0.0000E+00  0.0000E+00  0.0000E+00  0.0000E+00  0.0000E+00  0.1430E+03  0.4385E+03  0.0000E+00  0.0000E+00  0.0000E+00  0.0000E+00  0.0000E+00  0.0000E+00  0.0000E+00  0.0000E+00  0.0000E+00  0.0000E+00  0.0000E+00  0.0000E+00  0.0000E+00  0.0000E+00  0.0000E+00  0.0000E+00  0.0000E+00
REACH    1        0    26  0.7646E+02  0.7056E+00  0.6841E+00  0.7818E-03  0.9416E-01  0.1200E+03  0.1200E+03  0.2030E+04  0.2121E+03  0.1873E+03  0.3149E+02  0.2577E+02  0.9612E+02  0.8373E+02  0.0000E+00  0.0000E+00  0.0000E+00  0.0000E+00  0.4906E+00  0.1427E+01  0.5870E+02  0.0000E+00  0.2876E+05  0.0000E+00  0.1584E+03  0.0000E+00  0.0000E+00  0.0000E+00  0.0000E+00  0.0000E+00  0.0000E+00  0.0000E+00  0.0000E+00  0.0000E+00  0.0000E+00  0.0000E+00  0.0000E+00  0.0000E+00  0.0000E+00  0.0000E+00  0.0000E+00  0.0000E+00  0.0000E+00
REACH    2        0    26  0.8510E+02  0.4344E+00  0.4095E+00  0.7513E-03  0.9047E-01  0.6167E-08  0.6167E-08  0.1743E-06  0.6357E-05  0.0000E+00  0.1907E-04  0.0000E+00  0.8065E+02  0.7602E+02  0.0000E+00  0.0000E+00  0.0000E+00  0.0000E+00  0.6365E-05  0.0000E+00  0.0000E+00  0.0000E+00  0.0000E+00  0.0000E+00  0.0000E+00  0.1061E+00  0.0000E+00  0.0000E+00  0.0000E+00  0.0000E+00  0.0000E+00  0.0000E+00  0.0000E+00  0.0000E+00  0.0000E+00  0.0000E+00  0.0000E+00  0.0000E+00  0.0000E+00  0.0000E+00  0.0000E+00  0.0000E+00  0.0000E+00
REACH    3        0    26  0.1958E+03  0.1279E+01  0.1276E+01  0.1235E-02  0.1502E+00  0.1249E+03  0.1073E+03  0.9732E+03  0.2005E+03  0.1836E+03  0.2791E+02  0.2397E+02  0.1962E+03  0.1810E+03  0.0000E+00  0.0000E+00  0.0000E+00  0.0000E+00  0.1545E+01  0.4623E+01  0.6020E+02  0.0000E+00  0.7743E+03  0.0000E+00  0.3359E+02  0.1005E+03  0.0000E+00  0.0000E+00  0.0000E+00  0.0000E+00  0.0000E+00  0.0000E+00  0.0000E+00  0.0000E+00  0.0000E+00  0.0000E+00  0.0000E+00  0.0000E+00  0.0000E+00  0.0000E+00  0.0000E+00  0.0000E+00  0.0000E+00
REACH    4        0    26  0.3629E+02  0.2090E+00  0.2076E+00  0.1260E-03  0.1530E-01  0.3316E+01  0.3316E+01  0.1849E+03  0.1832E+02  0.3310E+02  0.2777E+01  0.5420E+01  0.4340E+02  0.3366E+02  0.0000E+00  0.0000E+00  0.0000E+00  0.0000E+00  0.1377E+00  0.0000E+00  0.5941E+02  0.0000E+00  0.1283E+04  0.0000E+00  0.4396E+02  0.1310E+03  0.0000E+00  0.0000E+00  0.0000E+00  0.0000E+00  0.0000E+00  0.0000E+00  0.0000E+00  0.0000E+00  0.0000E+00  0.0000E+00  0.0000E+00  0.0000E+00  0.0000E+00  0.0000E+00  0.0000E+00  0.0000E+00  0.0000E+00
REACH    5        0    26  0.2911E+03  0.1796E+01  0.1641E+01  0.2852E-02  0.3476E+00  0.1106E+03  0.8062E+02  0.5687E+03  0.2167E+03  0.1636E+03  0.2938E+02  0.1979E+02  0.2774E+03  0.2535E+03  0.0000E+00  0.0000E+00  0.0000E+00  0.0000E+00  0.4623E+01  0.1026E+02  0.0000E+00  0.0000E+00  0.0000E+00  0.0000E+00  0.2315E+03  0.6344E+03  0.0000E+00  0.0000E+00  0.0000E+00  0.0000E+00  0.0000E+00  0.0000E+00  0.0000E+00  0.0000E+00  0.0000E+00  0.0000E+00  0.0000E+00  0.0000E+00  0.0000E+00  0.0000E+00  0.0000E+00  0.0000E+00  0.0000E+00
REACH    1        0    27  0.7646E+02  0.4362E+00  0.4160E+00  0.8388E-03  0.9359E-01  0.6121E+01  0.6121E+01  0.1703E+03  0.1207E+02  0.3453E+02  0.1730E+01  0.4950E+01  0.8381E+02  0.7865E+02  0.0000E+00  0.0000E+00  0.0000E+00  0.0000E+00  0.2169E-01  0.6206E-01  0.8374E+02  0.0000E+00  0.9067E+03  0.0000E+00  0.1656E+02  0.4739E+02  0.0000E+00  0.0000E+00  0.0000E+00  0.0000E+00  0.0000E+00  0.0000E+00  0.0000E+00  0.0000E+00  0.0000E+00  0.0000E+00  0.0000E+00  0.0000E+00  0.0000E+00  0.0000E+00  0.0000E+00  0.0000E+00  0.0000E+00
REACH    2        0    27  0.8510E+02  0.4074E+00  0.3835E+00  0.8105E-03  0.9047E-01  0.6167E-08  0.6167E-08  0.1861E-06  0.6357E-05  0.0000E+00  0.1907E-04  0.0000E+00  0.7393E+02  0.6958E+02  0.0000E+00  0.0000E+00  0.0000E+00  0.0000E+00  0.6365E-05  0.0000E+00  0.0000E+00  0.0000E+00  0.0000E+00  0.0000E+00  0.0000E+00  0.9940E-01  0.0000E+00  0.0000E+00  0.0000E+00  0.0000E+00  0.0000E+00  0.0000E+00  0.0000E+00  0.0000E+00  0.0000E+00  0.0000E+00  0.0000E+00  0.0000E+00  0.0000E+00  0.0000E+00  0.0000E+00  0.0000E+00  0.0000E+00
REACH    3        0    27  0.1958E+03  0.9373E+00  0.9340E+00  0.1330E-02  0.1499E+00  0.6511E+01  0.6079E+01  0.7533E+02  0.3568E+02  0.1067E+03  0.5136E+01  0.1535E+02  0.1775E+03  0.1548E+03  0.0000E+00  0.0000E+00  0.0000E+00  0.0000E+00  0.8001E-01  0.0000E+00  0.8180E+03  0.0000E+00  0.2538E+03  0.0000E+00  0.5248E+02  0.1569E+03  0.0000E+00  0.0000E+00  0.0000E+00  0.0000E+00  0.0000E+00  0.0000E+00  0.0000E+00  0.0000E+00  0.0000E+00  0.0000E+00  0.0000E+00  0.0000E+00  0.0000E+00  0.0000E+00  0.0000E+00  0.0000E+00  0.0000E+00
REACH    4        0    27  0.3629E+02  0.1510E+00  0.1496E+00  0.1359E-03  0.1530E-01  0.9796E-01  0.9796E-01  0.7580E+01  0.5309E+00  0.1578E+01  0.8200E-01  0.2437E+00  0.3523E+02  0.3409E+02  0.0000E+00  0.0000E+00  0.0000E+00  0.0000E+00  0.7961E-02  0.0000E+00  0.4842E+02  0.0000E+00  0.3197E+02  0.0000E+00  0.3720E+01  0.1106E+02  0.0000E+00  0.0000E+00  0.0000E+00  0.0000E+00  0.0000E+00  0.0000E+00  0.0000E+00  0.0000E+00  0.0000E+00  0.0000E+00  0.0000E+00  0.0000E+00  0.0000E+00  0.0000E+00  0.0000E+00  0.0000E+00  0.0000E+00
REACH    5        0    27  0.2911E+03  0.1364E+01  0.1315E+01  0.3075E-02  0.3472E+00  0.6177E+01  0.8209E+01  0.7224E+02  0.1082E+03  0.8642E+02  0.1560E+02  0.1097E+02  0.2441E+03  0.2342E+03  0.0000E+00  0.0000E+00  0.0000E+00  0.0000E+00  0.3614E-05  0.8864E+00  0.0000E+00  0.0000E+00  0.0000E+00  0.0000E+00  0.1680E+03  0.5232E+03  0.0000E+00  0.0000E+00  0.0000E+00  0.0000E+00  0.0000E+00  0.0000E+00  0.0000E+00  0.0000E+00  0.0000E+00  0.0000E+00  0.0000E+00  0.0000E+00  0.0000E+00  0.0000E+00  0.0000E+00  0.0000E+00  0.0000E+00
REACH    1        0    28  0.7646E+02  0.6401E+00  0.6201E+00  0.1228E-02  0.9387E-01  0.1110E+02  0.1110E+02  0.2071E+03  0.2736E+02  0.3688E+02  0.4238E+01  0.5797E+01  0.1137E+03  0.1058E+03  0.0000E+00  0.0000E+00  0.0000E+00  0.0000E+00  0.1917E+00  0.4601E+00  0.4543E+02  0.0000E+00  0.3074E+04  0.0000E+00  0.6025E+02  0.1751E+03  0.0000E+00  0.0000E+00  0.0000E+00  0.0000E+00  0.0000E+00  0.0000E+00  0.0000E+00  0.0000E+00  0.0000E+00  0.0000E+00  0.0000E+00  0.0000E+00  0.0000E+00  0.0000E+00  0.0000E+00  0.0000E+00  0.0000E+00
REACH    2        0    28  0.8510E+02  0.4289E+00  0.4055E+00  0.1183E-02  0.9047E-01  0.6167E-08  0.6167E-08  0.1760E-06  0.6357E-05  0.0000E+00  0.1907E-04  0.0000E+00  0.7544E+02  0.7134E+02  0.0000E+00  0.0000E+00  0.0000E+00  0.0000E+00  0.6365E-05  0.0000E+00  0.0000E+00  0.0000E+00  0.0000E+00  0.0000E+00  0.0000E+00  0.1051E+00  0.0000E+00  0.0000E+00  0.0000E+00  0.0000E+00  0.0000E+00  0.0000E+00  0.0000E+00  0.0000E+00  0.0000E+00  0.0000E+00  0.0000E+00  0.0000E+00  0.0000E+00  0.0000E+00  0.0000E+00  0.0000E+00  0.0000E+00
REACH    3        0    28  0.1958E+03  0.1179E+01  0.1175E+01  0.1949E-02  0.1502E+00  0.1170E+02  0.1072E+02  0.1056E+03  0.3889E+02  0.6606E+02  0.6105E+01  0.1081E+02  0.2094E+03  0.1956E+03  0.0000E+00  0.0000E+00  0.0000E+00  0.0000E+00  0.4958E+00  0.0000E+00  0.9887E+02  0.0000E+00  0.7768E+02  0.0000E+00  0.1806E+03  0.5399E+03  0.0000E+00  0.0000E+00  0.0000E+00  0.0000E+00  0.0000E+00  0.0000E+00  0.0000E+00  0.0000E+00  0.0000E+00  0.0000E+00  0.0000E+00  0.0000E+00  0.0000E+00  0.0000E+00  0.0000E+00  0.0000E+00  0.0000E+00
REACH    4        0    28  0.3629E+02  0.1734E+00  0.1720E+00  0.1988E-03  0.1530E-01  0.4134E+00  0.4134E+00  0.2782E+02  0.2470E+01  0.7349E+01  0.3670E+00  0.1092E+01  0.4065E+02  0.3601E+02  0.0000E+00  0.0000E+00  0.0000E+00  0.0000E+00  0.3627E-01  0.0000E+00  0.6035E+02  0.0000E+00  0.1234E+03  0.0000E+00  0.6463E+01  0.1923E+02  0.0000E+00  0.0000E+00  0.0000E+00  0.0000E+00  0.0000E+00  0.0000E+00  0.0000E+00  0.0000E+00  0.0000E+00  0.0000E+00  0.0000E+00  0.0000E+00  0.0000E+00  0.0000E+00  0.0000E+00  0.0000E+00  0.0000E+00
REACH    5        0    28  0.2911E+03  0.1658E+01  0.1561E+01  0.4506E-02  0.3476E+00  0.1113E+02  0.1036E+02  0.7680E+02  0.7341E+02  0.5541E+02  0.1190E+02  0.7822E+01  0.2887E+03  0.2718E+03  0.0000E+00  0.0000E+00  0.0000E+00  0.0000E+00  0.3614E-05  0.0000E+00  0.0000E+00  0.0000E+00  0.0000E+00  0.0000E+00  0.5591E+03  0.1579E+04  0.0000E+00  0.0000E+00  0.0000E+00  0.0000E+00  0.0000E+00  0.0000E+00  0.0000E+00  0.0000E+00  0.0000E+00  0.0000E+00  0.0000E+00  0.0000E+00  0.0000E+00  0.0000E+00  0.0000E+00  0.0000E+00  0.0000E+00
REACH    1        0    29  0.7646E+02  0.5863E+00  0.5679E+00  0.4343E-03  0.9387E-01  0.2288E+01  0.2288E+01  0.4662E+02  0.6587E+01  0.1143E+02  0.1018E+01  0.1875E+01  0.1137E+03  0.1094E+03  0.0000E+00  0.0000E+00  0.0000E+00  0.0000E+00  0.8033E-01  0.2128E+00  0.1896E+02  0.0000E+00  0.5546E+03  0.0000E+00  0.2279E+02  0.6622E+02  0.0000E+00  0.0000E+00  0.0000E+00  0.0000E+00  0.0000E+00  0.0000E+00  0.0000E+00  0.0000E+00  0.0000E+00  0.0000E+00  0.0000E+00  0.0000E+00  0.0000E+00  0.0000E+00  0.0000E+00  0.0000E+00  0.0000E+00
REACH    2        0    29  0.8510E+02  0.6345E+00  0.6127E+00  0.4195E-03  0.9073E-01  0.6167E-08  0.6167E-08  0.1165E-06  0.6357E-05  0.0000E+00  0.1907E-04  0.0000E+00  0.1090E+03  0.1052E+03  0.0000E+00  0.0000E+00  0.0000E+00  0.0000E+00  0.6365E-05  0.0000E+00  0.0000E+00  0.0000E+00  0.0000E+00  0.0000E+00  0.0000E+00  0.1588E+00  0.0000E+00  0.0000E+00  0.0000E+00  0.0000E+00  0.0000E+00  0.0000E+00  0.0000E+00  0.0000E+00  0.0000E+00  0.0000E+00  0.0000E+00  0.0000E+00  0.0000E+00  0.0000E+00  0.0000E+00  0.0000E+00  0.0000E+00
REACH    3        0    29  0.1958E+03  0.1385E+01  0.1382E+01  0.6892E-03  0.1504E+00  0.3609E+01  0.4126E+01  0.3455E+02  0.1734E+02  0.3178E+02  0.2765E+01  0.5292E+01  0.2531E+03  0.2497E+03  0.0000E+00  0.0000E+00  0.0000E+00  0.0000E+00  0.2744E+00  0.4640E+00  0.5223E+02  0.0000E+00  0.3349E+03  0.0000E+00  0.7601E+02  0.2276E+03  0.0000E+00  0.0000E+00  0.0000E+00  0.0000E+00  0.0000E+00  0.0000E+00  0.0000E+00  0.0000E+00  0.0000E+00  0.0000E+00  0.0000E+00  0.0000E+00  0.0000E+00  0.0000E+00  0.0000E+00  0.0000E+00  0.0000E+00
REACH    4        0    29  0.3629E+02  0.2344E+00  0.2331E+00  0.7046E-04  0.1537E-01  0.1732E+01  0.1732E+01  0.8601E+02  0.8309E+01  0.2479E+02  0.1263E+01  0.3769E+01  0.5113E+02  0.4673E+02  0.0000E+00  0.0000E+00  0.0000E+00  0.0000E+00  0.6641E-01  0.0000E+00  0.5444E+02  0.0000E+00  0.5499E+03  0.0000E+00  0.1558E+02  0.4648E+02  0.0000E+00  0.0000E+00  0.0000E+00  0.0000E+00  0.0000E+00  0.0000E+00  0.0000E+00  0.0000E+00  0.0000E+00  0.0000E+00  0.0000E+00  0.0000E+00  0.0000E+00  0.0000E+00  0.0000E+00  0.0000E+00  0.0000E+00
REACH    5        0    29  0.2911E+03  0.2020E+01  0.1930E+01  0.1591E-02  0.3481E+00  0.5858E+01  0.7132E+01  0.4278E+02  0.5657E+02  0.4370E+02  0.9061E+01  0.6138E+01  0.3609E+03  0.3447E+03  0.0000E+00  0.0000E+00  0.0000E+00  0.0000E+00  0.4640E+00  0.1330E+01  0.0000E+00  0.0000E+00  0.0000E+00  0.0000E+00  0.2740E+03  0.7852E+03  0.0000E+00  0.0000E+00  0.0000E+00  0.0000E+00  0.0000E+00  0.0000E+00  0.0000E+00  0.0000E+00  0.0000E+00  0.0000E+00  0.0000E+00  0.0000E+00  0.0000E+00  0.0000E+00  0.0000E+00  0.0000E+00  0.0000E+00
[...]
REACH    5        0    58  0.2911E+03  0.1340E+01  0.1313E+01  0.3364E-02  0.3472E+00  0.9011E+00  0.2491E+01  0.2196E+02  0.1028E+00  0.8167E-01  0.1304E-01  0.9110E-02  0.4670E+03  0.4575E+03  0.0000E+00  0.0000E+00  0.0000E+00  0.0000E+00  0.1483E-01  0.4360E-01  0.0000E+00  0.0000E+00  0.0000E+00  0.0000E+00  0.8606E+00  0.2530E+01  0.0000E+00  0.0000E+00  0.0000E+00  0.0000E+00  0.0000E+00  0.0000E+00  0.0000E+00  0.0000E+00  0.0000E+00  0.0000E+00  0.0000E+00  0.0000E+00  0.0000E+00  0.0000E+00  0.0000E+00  0.0000E+00  0.0000E+00
REACH    1        0    59  0.7646E+02  0.4591E+00  0.4533E+00  0.1401E-02  0.9359E-01  0.2054E-06  0.2054E-06  0.5246E-05  0.6041E-05  0.0000E+00  0.1392E-04  0.0000E+00  0.2292E+03  0.2263E+03  0.0000E+00  0.0000E+00  0.0000E+00  0.0000E+00  0.4638E-05  0.0000E+00  0.0000E+00  0.0000E+00  0.0000E+00  0.0000E+00  0.0000E+00  0.1175E+00  0.0000E+00  0.0000E+00  0.0000E+00  0.0000E+00  0.0000E+00  0.0000E+00  0.0000E+00  0.0000E+00  0.0000E+00  0.0000E+00  0.0000E+00  0.0000E+00  0.0000E+00  0.0000E+00  0.0000E+00  0.0000E+00  0.0000E+00
REACH    2        0    59  0.8510E+02  0.5855E+00  0.5787E+00  0.1353E-02  0.9047E-01  0.6167E-08  0.6167E-08  0.1233E-06  0.6357E-05  0.0000E+00  0.1907E-04  0.0000E+00  0.2074E+03  0.2050E+03  0.0000E+00  0.0000E+00  0.0000E+00  0.0000E+00  0.6365E-05  0.0000E+00  0.0000E+00  0.0000E+00  0.0000E+00  0.0000E+00  0.0000E+00  0.1500E+00  0.0000E+00  0.0000E+00  0.0000E+00  0.0000E+00  0.0000E+00  0.0000E+00  0.0000E+00  0.0000E+00  0.0000E+00  0.0000E+00  0.0000E+00  0.0000E+00  0.0000E+00  0.0000E+00  0.0000E+00  0.0000E+00  0.0000E+00
REACH    3        0    59  0.1958E+03  0.1091E+01  0.1088E+01  0.2218E-02  0.1499E+00  0.3282E-02  0.8511E+00  0.9052E+01  0.4882E-01  0.3962E-01  0.6823E-02  0.4878E-02  0.4415E+03  0.4405E+03  0.0000E+00  0.0000E+00  0.0000E+00  0.0000E+00  0.2472E-02  0.7400E-02  0.0000E+00  0.0000E+00  0.0000E+00  0.0000E+00  0.2675E+00  0.8007E+00  0.0000E+00  0.0000E+00  0.0000E+00  0.0000E+00  0.0000E+00  0.0000E+00  0.0000E+00  0.0000E+00  0.0000E+00  0.0000E+00  0.0000E+00  0.0000E+00  0.0000E+00  0.0000E+00  0.0000E+00  0.0000E+00  0.0000E+00
REACH    4        0    59  0.3629E+02  0.9450E-01  0.9404E-01  0.2255E-03  0.1522E-01  0.1228E-02  0.1228E-02  0.1512E+00  0.2321E-01  0.1879E-01  0.3188E-02  0.2273E-02  0.1495E+02  0.1488E+02  0.0000E+00  0.0000E+00  0.0000E+00  0.0000E+00  0.1204E-02  0.3596E-02  0.0000E+00  0.0000E+00  0.0000E+00  0.0000E+00  0.0000E+00  0.2438E-01  0.0000E+00  0.0000E+00  0.0000E+00  0.0000E+00  0.0000E+00  0.0000E+00  0.0000E+00  0.0000E+00  0.0000E+00  0.0000E+00  0.0000E+00  0.0000E+00  0.0000E+00  0.0000E+00  0.0000E+00  0.0000E+00  0.0000E+00
REACH    5        0    59  0.2911E+03  0.1267E+01  0.1239E+01  0.5119E-02  0.3472E+00  0.8523E+00  0.2338E+01  0.2184E+02  0.5841E-01  0.4646E-01  0.7162E-02  0.5019E-02  0.4621E+03  0.4519E+03  0.0000E+00  0.0000E+00  0.0000E+00  0.0000E+00  0.1100E-01  0.3227E-01  0.0000E+00  0.0000E+00  0.0000E+00  0.0000E+00  0.8251E+00  0.2421E+01  0.0000E+00  0.0000E+00  0.0000E+00  0.0000E+00  0.0000E+00  0.0000E+00  0.0000E+00  0.0000E+00  0.0000E+00  0.0000E+00  0.0000E+00  0.0000E+00  0.0000E+00  0.0000E+00  0.0000E+00  0.0000E+00  0.0000E+00
REACH    1        0    60  0.7646E+02  0.4468E+00  0.4404E+00  0.2166E-02  0.9359E-01  0.1022E-07  0.1022E-07  0.2686E-06  0.4631E-05  0.0000E+00  0.1389E-04  0.0000E+00  0.2284E+03  0.2252E+03  0.0000E+00  0.0000E+00  0.0000E+00  0.0000E+00  0.4638E-05  0.0000E+00  0.0000E+00  0.0000E+00  0.0000E+00  0.0000E+00  0.0000E+00  0.1142E+00  0.0000E+00  0.0000E+00  0.0000E+00  0.0000E+00  0.0000E+00  0.0000E+00  0.0000E+00  0.0000E+00  0.0000E+00  0.0000E+00  0.0000E+00  0.0000E+00  0.0000E+00  0.0000E+00  0.0000E+00  0.0000E+00  0.0000E+00
REACH    2        0    60  0.8510E+02  0.5596E+00  0.5524E+00  0.2093E-02  0.9047E-01  0.6167E-08  0.6167E-08  0.1292E-06  0.6357E-05  0.0000E+00  0.1907E-04  0.0000E+00  0.2067E+03  0.2040E+03  0.0000E+00  0.0000E+00  0.0000E+00  0.0000E+00  0.6365E-05  0.0000E+00  0.0000E+00  0.0000E+00  0.0000E+00  0.0000E+00  0.0000E+00  0.1432E+00  0.0000E+00  0.0000E+00  0.0000E+00  0.0000E+00  0.0000E+00  0.0000E+00  0.0000E+00  0.0000E+00  0.0000E+00  0.0000E+00  0.0000E+00  0.0000E+00  0.0000E+00  0.0000E+00  0.0000E+00  0.0000E+00  0.0000E+00
REACH    3        0    60  0.1958E+03  0.1045E+01  0.1042E+01  0.3437E-02  0.1499E+00  0.2117E-02  0.8136E+00  0.9042E+01  0.3758E-01  0.2993E-01  0.5213E-02  0.3607E-02  0.4387E+03  0.4371E+03  0.0000E+00  0.0000E+00  0.0000E+00  0.0000E+00  0.1976E-02  0.5907E-02  0.0000E+00  0.0000E+00  0.0000E+00  0.0000E+00  0.2573E+00  0.7692E+00  0.0000E+00  0.0000E+00  0.0000E+00  0.0000E+00  0.0000E+00  0.0000E+00  0.0000E+00  0.0000E+00  0.0000E+00  0.0000E+00  0.0000E+00  0.0000E+00  0.0000E+00  0.0000E+00  0.0000E+00  0.0000E+00  0.0000E+00
REACH    4        0    60  0.3629E+02  0.8666E-01  0.8609E-01  0.3494E-03  0.1522E-01  0.1003E-02  0.1003E-02  0.1348E+00  0.1950E-01  0.1549E-01  0.2676E-02  0.1846E-02  0.1398E+02  0.1388E+02  0.0000E+00  0.0000E+00  0.0000E+00  0.0000E+00  0.1017E-02  0.3030E-02  0.0000E+00  0.0000E+00  0.0000E+00  0.0000E+00  0.0000E+00  0.2231E-01  0.0000E+00  0.0000E+00  0.0000E+00  0.0000E+00  0.0000E+00  0.0000E+00  0.0000E+00  0.0000E+00  0.0000E+00  0.0000E+00  0.0000E+00  0.0000E+00  0.0000E+00  0.0000E+00  0.0000E+00  0.0000E+00  0.0000E+00
REACH    5        0    60  0.2911E+03  0.1201E+01  0.1171E+01  0.7939E-02  0.3472E+00  0.8146E+00  0.2202E+01  0.2177E+02  0.4542E-01  0.3541E-01  0.5463E-02  0.3700E-02  0.4567E+03  0.4454E+03  0.0000E+00  0.0000E+00  0.0000E+00  0.0000E+00  0.8941E-02  0.2616E-01  0.0000E+00  0.0000E+00  0.0000E+00  0.0000E+00  0.7915E+00  0.2316E+01  0.0000E+00  0.0000E+00  0.0000E+00  0.0000E+00  0.0000E+00  0.0000E+00  0.0000E+00  0.0000E+00  0.0000E+00  0.0000E+00  0.0000E+00  0.0000E+00  0.0000E+00  0.0000E+00  0.0000E+00  0.0000E+00  0.0000E+00
REACH    1        0    61  0.7646E+02  0.4351E+00  0.4295E+00  0.1597E-02  0.9359E-01  0.4936E-08  0.4936E-08  0.1330E-06  0.4631E-05  0.0000E+00  0.1389E-04  0.0000E+00  0.2276E+03  0.2246E+03  0.0000E+00  0.0000E+00  0.0000E+00  0.0000E+00  0.4638E-05  0.0000E+00  0.0000E+00  0.0000E+00  0.0000E+00  0.0000E+00  0.0000E+00  0.1113E+00  0.0000E+00  0.0000E+00  0.0000E+00  0.0000E+00  0.0000E+00  0.0000E+00  0.0000E+00  0.0000E+00  0.0000E+00  0.0000E+00  0.0000E+00  0.0000E+00  0.0000E+00  0.0000E+00  0.0000E+00  0.0000E+00  0.0000E+00
REACH    2        0    61  0.8510E+02  0.5366E+00  0.5301E+00  0.1543E-02  0.9047E-01  0.6167E-08  0.6167E-08  0.1347E-06  0.6357E-05  0.0000E+00  0.1907E-04  0.0000E+00  0.2060E+03  0.2035E+03  0.0000E+00  0.0000E+00  0.0000E+00  0.0000E+00  0.6365E-05  0.0000E+00  0.0000E+00  0.0000E+00  0.0000E+00  0.0000E+00  0.0000E+00  0.1374E+00  0.0000E+00  0.0000E+00  0.0000E+00  0.0000E+00  0.0000E+00  0.0000E+00  0.0000E+00  0.0000E+00  0.0000E+00  0.0000E+00  0.0000E+00  0.0000E+00  0.0000E+00  0.0000E+00  0.0000E+00  0.0000E+00  0.0000E+00
REACH    3        0    61  0.1958E+03  0.1007E+01  0.1004E+01  0.2531E-02  0.1499E+00  0.1679E-02  0.7839E+00  0.9038E+01  0.3043E-01  0.2414E-01  0.4218E-02  0.2896E-02  0.4369E+03  0.4357E+03  0.0000E+00  0.0000E+00  0.0000E+00  0.0000E+00  0.1606E-02  0.4805E-02  0.0000E+00  0.0000E+00  0.0000E+00  0.0000E+00  0.2487E+00  0.7440E+00  0.0000E+00  0.0000E+00  0.0000E+00  0.0000E+00  0.0000E+00  0.0000E+00  0.0000E+00  0.0000E+00  0.0000E+00  0.0000E+00  0.0000E+00  0.0000E+00  0.0000E+00  0.0000E+00  0.0000E+00  0.0000E+00  0.0000E+00
REACH    4        0    61  0.3629E+02  0.8062E-01  0.8014E-01  0.2572E-03  0.1522E-01  0.8477E-03  0.8477E-03  0.1224E+00  0.1651E-01  0.1306E-01  0.2267E-02  0.1551E-02  0.1335E+02  0.1327E+02  0.0000E+00  0.0000E+00  0.0000E+00  0.0000E+00  0.8615E-03  0.2569E-02  0.0000E+00  0.0000E+00  0.0000E+00  0.0000E+00  0.0000E+00  0.2077E-01  0.0000E+00  0.0000E+00  0.0000E+00  0.0000E+00  0.0000E+00  0.0000E+00  0.0000E+00  0.0000E+00  0.0000E+00  0.0000E+00  0.0000E+00  0.0000E+00  0.0000E+00  0.0000E+00  0.0000E+00  0.0000E+00  0.0000E+00
REACH    5        0    61  0.2911E+03  0.1147E+01  0.1121E+01  0.5842E-02  0.3472E+00  0.7848E+00  0.2099E+01  0.2168E+02  0.3721E-01  0.2891E-01  0.4458E-02  0.2998E-02  0.4539E+03  0.4433E+03  0.0000E+00  0.0000E+00  0.0000E+00  0.0000E+00  0.7378E-02  0.2162E-01  0.0000E+00  0.0000E+00  0.0000E+00  0.0000E+00  0.7648E+00  0.2241E+01  0.0000E+00  0.0000E+00  0.0000E+00  0.0000E+00  0.0000E+00  0.0000E+00  0.0000E+00  0.0000E+00  0.0000E+00  0.0000E+00  0.0000E+00  0.0000E+00  0.0000E+00  0.0000E+00  0.0000E+00  0.0000E+00  0.0000E+00
REACH    1        0    62  0.7646E+02  0.4240E+00  0.4178E+00  0.2320E-02  0.9359E-01  0.4936E-08  0.4936E-08  0.1368E-06  0.4631E-05  0.0000E+00  0.1389E-04  0.0000E+00  0.2265E+03  0.2232E+03  0.0000E+00  0.0000E+00  0.0000E+00  0.0000E+00  0.4638E-05  0.0000E+00  0.0000E+00  0.0000E+00  0.0000E+00  0.0000E+00  0.0000E+00  0.1083E+00  0.0000E+00  0.0000E+00  0.0000E+00  0.0000E+00  0.0000E+00  0.0000E+00  0.0000E+00  0.0000E+00  0.0000E+00  0.0000E+00  0.0000E+00  0.0000E+00  0.0000E+00  0.0000E+00  0.0000E+00  0.0000E+00  0.0000E+00
REACH    2        0    62  0.8510E+02  0.5159E+00  0.5089E+00  0.2241E-02  0.9047E-01  0.6167E-08  0.6167E-08  0.1402E-06  0.6357E-05  0.0000E+00  0.1907E-04  0.0000E+00  0.2052E+03  0.2024E+03  0.0000E+00  0.0000E+00  0.0000E+00  0.0000E+00  0.6365E-05  0.0000E+00  0.0000E+00  0.0000E+00  0.0000E+00  0.0000E+00  0.0000E+00  0.1319E+00  0.0000E+00  0.0000E+00  0.0000E+00  0.0000E+00  0.0000E+00  0.0000E+00  0.0000E+00  0.0000E+00  0.0000E+00  0.0000E+00  0.0000E+00  0.0000E+00  0.0000E+00  0.0000E+00  0.0000E+00  0.0000E+00  0.0000E+00
REACH    3        0    62  0.1958E+03  0.9694E+00  0.9654E+00  0.3679E-02  0.1499E+00  0.1364E-02  0.7537E+00  0.9036E+01  0.2479E-01  0.1956E-01  0.3437E-02  0.2339E-02  0.4339E+03  0.4321E+03  0.0000E+00  0.0000E+00  0.0000E+00  0.0000E+00  0.1309E-02  0.3911E-02  0.0000E+00  0.0000E+00  0.0000E+00  0.0000E+00  0.2402E+00  0.7177E+00  0.0000E+00  0.0000E+00  0.0000E+00  0.0000E+00  0.0000E+00  0.0000E+00  0.0000E+00  0.0000E+00  0.0000E+00  0.0000E+00  0.0000E+00  0.0000E+00  0.0000E+00  0.0000E+00  0.0000E+00  0.0000E+00  0.0000E+00
REACH    4        0    62  0.3629E+02  0.7365E-01  0.7307E-01  0.3741E-03  0.1522E-01  0.7178E-03  0.7178E-03  0.1137E+00  0.1398E-01  0.1099E-01  0.1921E-02  0.1303E-02  0.1231E+02  0.1221E+02  0.0000E+00  0.0000E+00  0.0000E+00  0.0000E+00  0.7301E-03  0.2173E-02  0.0000E+00  0.0000E+00  0.0000E+00  0.0000E+00  0.0000E+00  0.1894E-01  0.0000E+00  0.0000E+00  0.0000E+00  0.0000E+00  0.0000E+00  0.0000E+00  0.0000E+00  0.0000E+00  0.0000E+00  0.0000E+00  0.0000E+00  0.0000E+00  0.0000E+00  0.0000E+00  0.0000E+00  0.0000E+00  0.0000E+00
REACH    5        0    62  0.2911E+03  0.1094E+01  0.1066E+01  0.8488E-02  0.3467E+00  0.7544E+00  0.2027E+01  0.2202E+02  0.3056E-01  0.2359E-01  0.3653E-02  0.2432E-02  0.4486E+03  0.4371E+03  0.0000E+00  0.0000E+00  0.0000E+00  0.0000E+00  0.6088E-02  0.1779E-01  0.0000E+00  0.0000E+00  0.0000E+00  0.0000E+00  0.7366E+00  0.2153E+01  0.0000E+00  0.0000E+00  0.0000E+00  0.0000E+00  0.0000E+00  0.0000E+00  0.0000E+00  0.0000E+00  0.0000E+00  0.0000E+00  0.0000E+00  0.0000E+00  0.0000E+00  0.0000E+00  0.0000E+00  0.0000E+00  0.0000E+00
REACH    1        0    63  0.7646E+02  0.4134E+00  0.4069E+00  0.2693E-02  0.9359E-01  0.4936E-08  0.4936E-08  0.1404E-06  0.4631E-05  0.0000E+00  0.1389E-04  0.0000E+00  0.2254E+03  0.2219E+03  0.0000E+00  0.0000E+00  0.0000E+00  0.0000E+00  0.4638E-05  0.0000E+00  0.0000E+00  0.0000E+00  0.0000E+00  0.0000E+00  0.0000E+00  0.1055E+00  0.0000E+00  0.0000E+00  0.0000E+00  0.0000E+00  0.0000E+00  0.0000E+00  0.0000E+00  0.0000E+00  0.0000E+00  0.0000E+00  0.0000E+00  0.0000E+00  0.0000E+00  0.0000E+00  0.0000E+00  0.0000E+00  0.0000E+00
REACH    2        0    63  0.8510E+02  0.4974E+00  0.4902E+00  0.2602E-02  0.9047E-01  0.6167E-08  0.6167E-08  0.1456E-06  0.6357E-05  0.0000E+00  0.1907E-04  0.0000E+00  0.2044E+03  0.2014E+03  0.0000E+00  0.0000E+00  0.0000E+00  0.0000E+00  0.6365E-05  0.0000E+00  0.0000E+00  0.0000E+00  0.0000E+00  0.0000E+00  0.0000E+00  0.1271E+00  0.0000E+00  0.0000E+00  0.0000E+00  0.0000E+00  0.0000E+00  0.0000E+00  0.0000E+00  0.0000E+00  0.0000E+00  0.0000E+00  0.0000E+00  0.0000E+00  0.0000E+00  0.0000E+00  0.0000E+00  0.0000E+00  0.0000E+00
REACH    3        0    63  0.1958E+03  0.9359E+00  0.9313E+00  0.4270E-02  0.1499E+00  0.1111E-02  0.7269E+00  0.9033E+01  0.2020E-01  0.1588E-01  0.2803E-02  0.1895E-02  0.4310E+03  0.4289E+03  0.0000E+00  0.0000E+00  0.0000E+00  0.0000E+00  0.1068E-02  0.3187E-02  0.0000E+00  0.0000E+00  0.0000E+00  0.0000E+00  0.2325E+00  0.6941E+00  0.0000E+00  0.0000E+00  0.0000E+00  0.0000E+00  0.0000E+00  0.0000E+00  0.0000E+00  0.0000E+00  0.0000E+00  0.0000E+00  0.0000E+00  0.0000E+00  0.0000E+00  0.0000E+00  0.0000E+00  0.0000E+00  0.0000E+00
REACH    4        0    63  0.3629E+02  0.6824E-01  0.6767E-01  0.4323E-03  0.1515E-01  0.6079E-03  0.6079E-03  0.1040E+00  0.1184E-01  0.9277E-02  0.1629E-02  0.1097E-02  0.1159E+02  0.1150E+02  0.0000E+00  0.0000E+00  0.0000E+00  0.0000E+00  0.6188E-03  0.1841E-02  0.0000E+00  0.0000E+00  0.0000E+00  0.0000E+00  0.0000E+00  0.1754E-01  0.0000E+00  0.0000E+00  0.0000E+00  0.0000E+00  0.0000E+00  0.0000E+00  0.0000E+00  0.0000E+00  0.0000E+00  0.0000E+00  0.0000E+00  0.0000E+00  0.0000E+00  0.0000E+00  0.0000E+00  0.0000E+00  0.0000E+00
REACH    5        0    63  0.2911E+03  0.1048E+01  0.1019E+01  0.9853E-02  0.3467E+00  0.7275E+00  0.1933E+01  0.2196E+02  0.2516E-01  0.1933E-01  0.3003E-02  0.1984E-02  0.4442E+03  0.4320E+03  0.0000E+00  0.0000E+00  0.0000E+00  0.0000E+00  0.5031E-02  0.1468E-01  0.0000E+00  0.0000E+00  0.0000E+00  0.0000E+00  0.7117E+00  0.2076E+01  0.0000E+00  0.0000E+00  0.0000E+00  0.0000E+00  0.0000E+00  0.0000E+00  0.0000E+00  0.0000E+00  0.0000E+00  0.0000E+00  0.0000E+00  0.0000E+00  0.0000E+00  0.0000E+00  0.0000E+00  0.0000E+00  0.0000E+00
REACH    1        0    64  0.7646E+02  0.4031E+00  0.3974E+00  0.2054E-02  0.9359E-01  0.4936E-08  0.4936E-08  0.1438E-06  0.4631E-05  0.0000E+00  0.1389E-04  0.0000E+00  0.2241E+03  0.2209E+03  0.0000E+00  0.0000E+00  0.0000E+00  0.0000E+00  0.4638E-05  0.0000E+00  0.0000E+00  0.0000E+00  0.0000E+00  0.0000E+00  0.0000E+00  0.1030E+00  0.0000E+00  0.0000E+00  0.0000E+00  0.0000E+00  0.0000E+00  0.0000E+00  0.0000E+00  0.0000E+00  0.0000E+00  0.0000E+00  0.0000E+00  0.0000E+00  0.0000E+00  0.0000E+00  0.0000E+00  0.0000E+00  0.0000E+00
REACH    2        0    64  0.8510E+02  0.4806E+00  0.4742E+00  0.1984E-02  0.9047E-01  0.6167E-08  0.6167E-08  0.1505E-06  0.6357E-05  0.0000E+00  0.1907E-04  0.0000E+00  0.2035E+03  0.2008E+03  0.0000E+00  0.0000E+00  0.0000E+00  0.0000E+00  0.6365E-05  0.0000E+00  0.0000E+00  0.0000E+00  0.0000E+00  0.0000E+00  0.0000E+00  0.1229E+00  0.0000E+00  0.0000E+00  0.0000E+00  0.0000E+00  0.0000E+00  0.0000E+00  0.0000E+00  0.0000E+00  0.0000E+00  0.0000E+00  0.0000E+00  0.0000E+00  0.0000E+00  0.0000E+00  0.0000E+00  0.0000E+00  0.0000E+00
REACH    3        0    64  0.1958E+03  0.9071E+00  0.9035E+00  0.3256E-02  0.1499E+00  0.9060E-03  0.7050E+00  0.9031E+01  0.1647E-01  0.1314E-01  0.2286E-02  0.1588E-02  0.4289E+03  0.4272E+03  0.0000E+00  0.0000E+00  0.0000E+00  0.0000E+00  0.8708E-03  0.2602E-02  0.0000E+00  0.0000E+00  0.0000E+00  0.0000E+00  0.2259E+00  0.6751E+00  0.0000E+00  0.0000E+00  0.0000E+00  0.0000E+00  0.0000E+00  0.0000E+00  0.0000E+00  0.0000E+00  0.0000E+00  0.0000E+00  0.0000E+00  0.0000E+00  0.0000E+00  0.0000E+00  0.0000E+00  0.0000E+00  0.0000E+00
REACH    4        0    64  0.3629E+02  0.6341E-01  0.6295E-01  0.3296E-03  0.1515E-01  0.5148E-03  0.5148E-03  0.9466E-01  0.1003E-01  0.7978E-02  0.1381E-02  0.9557E-03  0.1094E+02  0.1086E+02  0.0000E+00  0.0000E+00  0.0000E+00  0.0000E+00  0.5245E-03  0.1562E-02  0.0000E+00  0.0000E+00  0.0000E+00  0.0000E+00  0.0000E+00  0.1632E-01  0.0000E+00  0.0000E+00  0.0000E+00  0.0000E+00  0.0000E+00  0.0000E+00  0.0000E+00  0.0000E+00  0.0000E+00  0.0000E+00  0.0000E+00  0.0000E+00  0.0000E+00  0.0000E+00  0.0000E+00  0.0000E+00  0.0000E+00
REACH    5        0    64  0.2911E+03  0.1010E+01  0.9839E+00  0.7511E-02  0.3467E+00  0.7055E+00  0.1860E+01  0.2188E+02  0.2112E-01  0.1650E-01  0.2555E-02  0.1736E-02  0.4415E+03  0.4302E+03  0.0000E+00  0.0000E+00  0.0000E+00  0.0000E+00  0.4168E-02  0.1218E-01  0.0000E+00  0.0000E+00  0.0000E+00  0.0000E+00  0.6914E+00  0.2021E+01  0.0000E+00  0.0000E+00  0.0000E+00  0.0000E+00  0.0000E+00  0.0000E+00  0.0000E+00  0.0000E+00  0.0000E+00  0.0000E+00  0.0000E+00  0.0000E+00  0.0000E+00  0.0000E+00  0.0000E+00  0.0000E+00  0.0000E+00
REACH    1        0    65  0.7646E+02  0.3932E+00  0.3874E+00  0.2288E-02  0.9359E-01  0.4936E-08  0.4936E-08  0.1475E-06  0.4631E-05  0.0000E+00  0.1389E-04  0.0000E+00  0.2227E+03  0.2194E+03  0.0000E+00  0.0000E+00  0.0000E+00  0.0000E+00  0.4638E-05  0.0000E+00  0.0000E+00  0.0000E+00  0.0000E+00  0.0000E+00  0.0000E+00  0.1004E+00  0.0000E+00  0.0000E+00  0.0000E+00  0.0000E+00  0.0000E+00  0.0000E+00  0.0000E+00  0.0000E+00  0.0000E+00  0.0000E+00  0.0000E+00  0.0000E+00  0.0000E+00  0.0000E+00  0.0000E+00  0.0000E+00  0.0000E+00
REACH    2        0    65  0.8510E+02  0.4111E+00  0.4047E+00  0.2210E-02  0.9047E-01  0.6167E-08  0.6167E-08  0.1764E-06  0.6357E-05  0.0000E+00  0.1907E-04  0.0000E+00  0.1539E+03  0.1514E+03  0.0000E+00  0.0000E+00  0.0000E+00  0.0000E+00  0.6365E-05  0.0000E+00  0.0000E+00  0.0000E+00  0.0000E+00  0.0000E+00  0.0000E+00  0.1049E+00  0.0000E+00  0.0000E+00  0.0000E+00  0.0000E+00  0.0000E+00  0.0000E+00  0.0000E+00  0.0000E+00  0.0000E+00  0.0000E+00  0.0000E+00  0.0000E+00  0.0000E+00  0.0000E+00  0.0000E+00  0.0000E+00  0.0000E+00
REACH    3        0    65  0.1958E+03  0.8248E+00  0.8210E+00  0.3621E-02  0.1497E+00  0.7385E-03  0.6406E+00  0.9031E+01  0.1343E-01  0.1076E-01  0.1865E-02  0.1306E-02  0.3777E+03  0.3759E+03  0.0000E+00  0.0000E+00  0.0000E+00  0.0000E+00  0.7104E-03  0.2121E-02  0.0000E+00  0.0000E+00  0.0000E+00  0.0000E+00  0.2053E+00  0.6132E+00  0.0000E+00  0.0000E+00  0.0000E+00  0.0000E+00  0.0000E+00  0.0000E+00  0.0000E+00  0.0000E+00  0.0000E+00  0.0000E+00  0.0000E+00  0.0000E+00  0.0000E+00  0.0000E+00  0.0000E+00  0.0000E+00  0.0000E+00
REACH    4        0    65  0.3629E+02  0.5910E-01  0.5861E-01  0.3671E-03  0.1515E-01  0.4360E-03  0.4360E-03  0.8611E-01  0.8495E-02  0.6780E-02  0.1171E-02  0.8162E-03  0.1035E+02  0.1026E+02  0.0000E+00  0.0000E+00  0.0000E+00  0.0000E+00  0.4447E-03  0.1323E-02  0.0000E+00  0.0000E+00  0.0000E+00  0.0000E+00  0.0000E+00  0.1519E-01  0.0000E+00  0.0000E+00  0.0000E+00  0.0000E+00  0.0000E+00  0.0000E+00  0.0000E+00  0.0000E+00  0.0000E+00  0.0000E+00  0.0000E+00  0.0000E+00  0.0000E+00  0.0000E+00  0.0000E+00  0.0000E+00  0.0000E+00
REACH    5        0    65  0.2911E+03  0.9181E+00  0.8923E+00  0.8364E-02  0.3467E+00  0.6410E+00  0.1667E+01  0.2162E+02  0.1754E-01  0.1372E-01  0.2133E-02  0.1457E-02  0.3892E+03  0.3783E+03  0.0000E+00  0.0000E+00  0.0000E+00  0.0000E+00  0.3448E-02  0.1005E-01  0.0000E+00  0.0000E+00  0.0000E+00  0.0000E+00  0.6283E+00  0.1832E+01  0.0000E+00  0.0000E+00  0.0000E+00  0.0000E+00  0.0000E+00  0.0000E+00  0.0000E+00  0.0000E+00  0.0000E+00  0.0000E+00  0.0000E+00  0.0000E+00  0.0000E+00  0.0000E+00  0.0000E+00  0.0000E+00  0.0000E+00
