1
    SWAT Jun 01 2011    VER 2009/Rev. 481                                                                0/ 0/   0      0: 0: 0

    General Input/Output section (file.cio):                                        
    2013-7-14 00:00:00 ARCGIS-SWAT interface AV                                     
                                                                                    


       SUB      GIS  MON   AREAkm2  PRECIPmm SNOMELTmm     PETmm      ETmm      SWmm    PERCmm    SURQmm    GW_Qmm    WYLDmm  SYLDt/ha ORGNkg/ha ORGPkg/haNSURQkg/ha SOLPkg/ha SEDPkg/ha LAT Q(mm)LATNO3kg/hGWNO3kg/haCHOLAkg/haCBODUkg/ha DOXQkg/ha
BIGSUB   1        0    1.76460E+02 0.000E+00 0.000E+00 0.611E+00 0.176E+00 0.169E+03 0.000E+00 0.836E-06 0.790E-02 0.218E+00 0.901E-10 0.783E-09 0.606E-09 0.946E-08 0.606E-09 0.121E-08 0.210E+00 0.263E-02 0.263E-03 .00000E+00 0.000E+00 0.000E+00
BIGSUB   2        0    1.85095E+02 0.000E+00 0.000E+00 0.610E+00 0.194E+00 0.159E+03 0.000E+00 0.743E-06 0.000E+00 0.178E+00 0.725E-12 0.747E-09 0.747E-09 0.747E-09 0.747E-09 0.149E-08 0.178E+00 0.238E-02 0.100E-11 .00000E+00 0.000E+00 0.000E+00
BIGSUB   3        0    1.34257E+02 0.000E+00 0.000E+00 0.603E+00 0.223E+00 0.218E+03 0.000E+00 0.403E-02 0.320E-03 0.167E+00 0.148E-05 0.203E-04 0.324E-05 0.788E-04 0.131E-05 0.585E-07 0.163E+00 0.240E-02 0.149E-04 .00000E+00 0.000E+00 0.000E+00
BIGSUB   4        0    1.36293E+02 0.000E+00 0.000E+00 0.604E+00 0.213E+00 0.286E+03 0.000E+00 0.198E-02 0.000E+00 0.221E+00 0.610E-06 0.104E-04 0.165E-05 0.371E-04 0.660E-06 0.604E-08 0.219E+00 0.278E-02 0.100E-11 .00000E+00 0.000E+00 0.000E+00
BIGSUB   5        0    1.58984E+02 0.000E+00 0.000E+00 0.601E+00 0.179E+00 0.197E+03 0.000E+00 0.609E-06 0.000E+00 0.180E+00 0.500E-12 0.612E-09 0.612E-09 0.612E-09 0.612E-09 0.122E-08 0.180E+00 0.189E-02 0.100E-11 .00000E+00 0.000E+00 0.000E+00
BIGSUB   1        0    2.76460E+02 0.000E+00 0.000E+00 0.815E+00 0.248E+00 0.169E+03 0.000E+00 0.603E-06 0.114E-01 0.199E+00 0.403E-11 0.606E-09 0.606E-09 0.899E-09 0.606E-09 0.121E-08 0.188E+00 0.236E-02 0.380E-03 .00000E+00 0.000E+00 0.000E+00
BIGSUB   2        0    2.85095E+02 0.000E+00 0.000E+00 0.814E+00 0.273E+00 0.159E+03 0.000E+00 0.743E-06 0.000E+00 0.158E+00 0.725E-12 0.747E-09 0.747E-09 0.747E-09 0.747E-09 0.149E-08 0.158E+00 0.208E-02 0.100E-11 .00000E+00 0.000E+00 0.000E+00
BIGSUB   3        0    2.34257E+02 0.000E+00 0.000E+00 0.806E+00 0.310E+00 0.217E+03 0.000E+00 0.328E-02 0.204E-03 0.141E+00 0.120E-05 0.166E-04 0.264E-05 0.642E-04 0.106E-05 0.480E-07 0.138E+00 0.203E-02 0.947E-05 .00000E+00 0.000E+00 0.000E+00
BIGSUB   4        0    2.36293E+02 0.000E+00 0.000E+00 0.808E+00 0.292E+00 0.286E+03 0.000E+00 0.168E-02 0.000E+00 0.194E+00 0.517E-06 0.878E-05 0.140E-05 0.314E-04 0.559E-06 0.538E-08 0.192E+00 0.241E-02 0.100E-11 .00000E+00 0.000E+00 0.000E+00
BIGSUB   5        0    2.58984E+02 0.000E+00 0.000E+00 0.804E+00 0.254E+00 0.197E+03 0.000E+00 0.609E-06 0.000E+00 0.149E+00 0.500E-12 0.612E-09 0.612E-09 0.612E-09 0.612E-09 0.122E-08 0.149E+00 0.155E-02 0.100E-11 .00000E+00 0.000E+00 0.000E+00
BIGSUB   1        0    3.76460E+02 0.000E+00 0.000E+00 0.894E+00 0.272E+00 0.168E+03 0.000E+00 0.603E-06 0.317E-02 0.172E+00 0.646E-12 0.606E-09 0.606E-09 0.606E-09 0.606E-09 0.121E-08 0.169E+00 0.214E-02 0.105E-03 .00000E+00 0.000E+00 0.000E+00
BIGSUB   2        0    3.85095E+02 0.000E+00 0.000E+00 0.893E+00 0.301E+00 0.159E+03 0.000E+00 0.743E-06 0.000E+00 0.141E+00 0.725E-12 0.747E-09 0.747E-09 0.747E-09 0.747E-09 0.149E-08 0.141E+00 0.184E-02 0.100E-11 .00000E+00 0.000E+00 0.000E+00
BIGSUB   3        0    3.34257E+02 0.000E+00 0.000E+00 0.885E+00 0.338E+00 0.217E+03 0.000E+00 0.267E-02 0.000E+00 0.120E+00 0.981E-06 0.135E-04 0.215E-05 0.524E-04 0.867E-06 0.394E-07 0.117E+00 0.172E-02 0.100E-11 .00000E+00 0.000E+00 0.000E+00
BIGSUB   4        0    3.36293E+02 0.000E+00 0.000E+00 0.887E+00 0.318E+00 0.285E+03 0.000E+00 0.142E-02 0.000E+00 0.171E+00 0.437E-06 0.743E-05 0.118E-05 0.266E-04 0.474E-06 0.483E-08 0.169E+00 0.210E-02 0.100E-11 .00000E+00 0.000E+00 0.000E+00
BIGSUB   5        0    3.58984E+02 0.000E+00 0.000E+00 0.883E+00 0.283E+00 0.197E+03 0.000E+00 0.609E-06 0.000E+00 0.124E+00 0.500E-12 0.612E-09 0.612E-09 0.612E-09 0.612E-09 0.122E-08 0.124E+00 0.128E-02 0.100E-11 .00000E+00 0.000E+00 0.000E+00
BIGSUB   1        0    4.76460E+02 0.000E+00 0.000E+00 0.106E+01 0.322E+00 0.168E+03 0.000E+00 0.603E-06 0.000E+00 0.153E+00 0.646E-12 0.606E-09 0.606E-09 0.606E-09 0.606E-09 0.121E-08 0.153E+00 0.195E-02 0.100E-11 .00000E+00 0.000E+00 0.000E+00
BIGSUB   2        0    4.85095E+02 0.000E+00 0.000E+00 0.106E+01 0.354E+00 0.158E+03 0.000E+00 0.743E-06 0.000E+00 0.127E+00 0.725E-12 0.747E-09 0.747E-09 0.747E-09 0.747E-09 0.149E-08 0.127E+00 0.163E-02 0.100E-11 .00000E+00 0.000E+00 0.000E+00
BIGSUB   3        0    4.34257E+02 0.000E+00 0.000E+00 0.105E+01 0.395E+00 0.216E+03 0.000E+00 0.218E-02 0.000E+00 0.102E+00 0.799E-06 0.110E-04 0.175E-05 0.427E-04 0.707E-06 0.325E-07 0.100E+00 0.146E-02 0.100E-11 .00000E+00 0.000E+00 0.000E+00
BIGSUB   4        0    4.36293E+02 0.000E+00 0.000E+00 0.106E+01 0.369E+00 0.285E+03 0.000E+00 0.120E-02 0.000E+00 0.151E+00 0.370E-06 0.630E-05 0.100E-05 0.225E-04 0.401E-06 0.436E-08 0.149E+00 0.183E-02 0.100E-11 .00000E+00 0.000E+00 0.000E+00
BIGSUB   5        0    4.58984E+02 0.000E+00 0.000E+00 0.105E+01 0.334E+00 0.196E+03 0.000E+00 0.609E-06 0.000E+00 0.103E+00 0.500E-12 0.612E-09 0.612E-09 0.612E-09 0.612E-09 0.122E-08 0.103E+00 0.105E-02 0.100E-11 .00000E+00 0.000E+00 0.000E+00
BIGSUB   1        0    5.76460E+02 0.000E+00 0.000E+00 0.934E+00 0.281E+00 0.168E+03 0.000E+00 0.603E-06 0.000E+00 0.140E+00 0.646E-12 0.606E-09 0.606E-09 0.606E-09 0.606E-09 0.121E-08 0.140E+00 0.178E-02 0.100E-11 .00000E+00 0.000E+00 0.000E+00
BIGSUB   2        0    5.85095E+02 0.000E+00 0.000E+00 0.933E+00 0.307E+00 0.158E+03 0.000E+00 0.743E-06 0.000E+00 0.115E+00 0.725E-12 0.747E-09 0.747E-09 0.747E-09 0.747E-09 0.149E-08 0.115E+00 0.146E-02 0.100E-11 .00000E+00 0.000E+00 0.000E+00
BIGSUB   3        0    5.34257E+02 0.000E+00 0.000E+00 0.925E+00 0.339E+00 0.216E+03 0.000E+00 0.178E-02 0.000E+00 0.876E-01 0.652E-06 0.897E-05 0.143E-05 0.348E-04 0.576E-06 0.268E-07 0.858E-01 0.125E-02 0.100E-11 .00000E+00 0.000E+00 0.000E+00
BIGSUB   4        0    5.36293E+02 0.000E+00 0.000E+00 0.926E+00 0.314E+00 0.285E+03 0.000E+00 0.102E-02 0.000E+00 0.133E+00 0.314E-06 0.533E-05 0.848E-06 0.191E-04 0.340E-06 0.396E-08 0.132E+00 0.160E-02 0.100E-11 .00000E+00 0.000E+00 0.000E+00
BIGSUB   5        0    5.58984E+02 0.000E+00 0.000E+00 0.922E+00 0.290E+00 0.196E+03 0.000E+00 0.609E-06 0.000E+00 0.863E-01 0.500E-12 0.612E-09 0.612E-09 0.612E-09 0.612E-09 0.122E-08 0.863E-01 0.867E-03 0.100E-11 .00000E+00 0.000E+00 0.000E+00
BIGSUB   1        0    6.76460E+02 0.000E+00 0.000E+00 0.769E+00 0.231E+00 0.168E+03 0.000E+00 0.603E-06 0.000E+00 0.128E+00 0.646E-12 0.606E-09 0.606E-09 0.606E-09 0.606E-09 0.121E-08 0.128E+00 0.164E-02 0.100E-11 .00000E+00 0.000E+00 0.000E+00
BIGSUB   2        0    6.85095E+02 0.000E+00 0.000E+00 0.768E+00 0.251E+00 0.158E+03 0.000E+00 0.743E-06 0.000E+00 0.104E+00 0.725E-12 0.747E-09 0.747E-09 0.747E-09 0.747E-09 0.149E-08 0.104E+00 0.132E-02 0.100E-11 .00000E+00 0.000E+00 0.000E+00
BIGSUB   3        0    6.34257E+02 0.000E+00 0.000E+00 0.760E+00 0.274E+00 0.216E+03 0.000E+00 0.145E-02 0.000E+00 0.754E-01 0.531E-06 0.732E-05 0.117E-05 0.284E-04 0.470E-06 0.221E-07 0.740E-01 0.107E-02 0.100E-11 .00000E+00 0.000E+00 0.000E+00
BIGSUB   4        0    6.36293E+02 0.000E+00 0.000E+00 0.761E+00 0.253E+00 0.285E+03 0.000E+00 0.864E-03 0.000E+00 0.119E+00 0.266E-06 0.452E-05 0.718E-06 0.161E-04 0.288E-06 0.362E-08 0.118E+00 0.141E-02 0.100E-11 .00000E+00 0.000E+00 0.000E+00
BIGSUB   5        0    6.58984E+02 0.000E+00 0.000E+00 0.758E+00 0.237E+00 0.196E+03 0.000E+00 0.609E-06 0.000E+00 0.724E-01 0.500E-12 0.612E-09 0.612E-09 0.612E-09 0.612E-09 0.122E-08 0.724E-01 0.716E-03 0.100E-11 .00000E+00 0.000E+00 0.000E+00
BIGSUB   1        0    7.76460E+02 0.000E+00 0.000E+00 0.116E+01 0.348E+00 0.167E+03 0.000E+00 0.603E-06 0.000E+00 0.118E+00 0.646E-12 0.606E-09 0.606E-09 0.606E-09 0.606E-09 0.121E-08 0.118E+00 0.152E-02 0.100E-11 .00000E+00 0.000E+00 0.000E+00
BIGSUB   2        0    7.85095E+02 0.000E+00 0.000E+00 0.116E+01 0.378E+00 0.157E+03 0.000E+00 0.743E-06 0.000E+00 0.957E-01 0.725E-12 0.747E-09 0.747E-09 0.747E-09 0.747E-09 0.149E-08 0.957E-01 0.120E-02 0.100E-11 .00000E+00 0.000E+00 0.000E+00
BIGSUB   3        0    7.34257E+02 0.000E+00 0.000E+00 0.115E+01 0.414E+00 0.215E+03 0.000E+00 0.118E-02 0.000E+00 0.653E-01 0.433E-06 0.596E-05 0.951E-06 0.231E-04 0.383E-06 0.183E-07 0.641E-01 0.926E-03 0.100E-11 .00000E+00 0.000E+00 0.000E+00
BIGSUB   4        0    7.36293E+02 0.000E+00 0.000E+00 0.115E+01 0.382E+00 0.284E+03 0.000E+00 0.732E-03 0.000E+00 0.106E+00 0.225E-06 0.382E-05 0.608E-06 0.137E-04 0.244E-06 0.334E-08 0.105E+00 0.124E-02 0.100E-11 .00000E+00 0.000E+00 0.000E+00
BIGSUB   5        0    7.58984E+02 0.000E+00 0.000E+00 0.115E+01 0.361E+00 0.195E+03 0.000E+00 0.609E-06 0.000E+00 0.611E-01 0.500E-12 0.612E-09 0.612E-09 0.612E-09 0.612E-09 0.122E-08 0.611E-01 0.593E-03 0.100E-11 .00000E+00 0.000E+00 0.000E+00
BIGSUB   1        0    8.76460E+02 0.000E+00 0.000E+00 0.138E+01 0.414E+00 0.167E+03 0.000E+00 0.603E-06 0.000E+00 0.110E+00 0.646E-12 0.606E-09 0.606E-09 0.606E-09 0.606E-09 0.121E-08 0.110E+00 0.141E-02 0.100E-11 .00000E+00 0.000E+00 0.000E+00
BIGSUB   2        0    8.85095E+02 0.000E+00 0.000E+00 0.138E+01 0.449E+00 0.157E+03 0.000E+00 0.743E-06 0.000E+00 0.882E-01 0.725E-12 0.747E-09 0.747E-09 0.747E-09 0.747E-09 0.149E-08 0.882E-01 0.109E-02 0.100E-11 .00000E+00 0.000E+00 0.000E+00
BIGSUB   3        0    8.34257E+02 0.000E+00 0.000E+00 0.137E+01 0.490E+00 0.215E+03 0.000E+00 0.963E-03 0.000E+00 0.569E-01 0.353E-06 0.486E-05 0.775E-06 0.188E-04 0.313E-06 0.153E-07 0.559E-01 0.803E-03 0.100E-11 .00000E+00 0.000E+00 0.000E+00
BIGSUB   4        0    8.36293E+02 0.000E+00 0.000E+00 0.137E+01 0.451E+00 0.284E+03 0.000E+00 0.620E-03 0.000E+00 0.947E-01 0.191E-06 0.324E-05 0.515E-06 0.116E-04 0.207E-06 0.310E-08 0.941E-01 0.109E-02 0.100E-11 .00000E+00 0.000E+00 0.000E+00
BIGSUB   5        0    8.58984E+02 0.000E+00 0.000E+00 0.137E+01 0.434E+00 0.195E+03 0.000E+00 0.609E-06 0.000E+00 0.518E-01 0.500E-12 0.612E-09 0.612E-09 0.612E-09 0.612E-09 0.122E-08 0.518E-01 0.493E-03 0.100E-11 .00000E+00 0.000E+00 0.000E+00
BIGSUB   1        0    9.76460E+02 0.000E+00 0.000E+00 0.860E+00 0.256E+00 0.167E+03 0.000E+00 0.603E-06 0.000E+00 0.102E+00 0.646E-12 0.606E-09 0.606E-09 0.606E-09 0.606E-09 0.121E-08 0.102E+00 0.132E-02 0.100E-11 .00000E+00 0.000E+00 0.000E+00
BIGSUB   2        0    9.85095E+02 0.000E+00 0.000E+00 0.859E+00 0.277E+00 0.157E+03 0.000E+00 0.743E-06 0.000E+00 0.816E-01 0.725E-12 0.747E-09 0.747E-09 0.747E-09 0.747E-09 0.149E-08 0.816E-01 0.101E-02 0.100E-11 .00000E+00 0.000E+00 0.000E+00
BIGSUB   3        0    9.34257E+02 0.000E+00 0.000E+00 0.851E+00 0.299E+00 0.215E+03 0.000E+00 0.785E-03 0.000E+00 0.498E-01 0.288E-06 0.396E-05 0.632E-06 0.154E-04 0.255E-06 0.128E-07 0.490E-01 0.700E-03 0.100E-11 .00000E+00 0.000E+00 0.000E+00
BIGSUB   4        0    9.36293E+02 0.000E+00 0.000E+00 0.852E+00 0.273E+00 0.283E+03 0.000E+00 0.525E-03 0.000E+00 0.851E-01 0.161E-06 0.274E-05 0.437E-06 0.981E-05 0.175E-06 0.289E-08 0.846E-01 0.969E-03 0.100E-11 .00000E+00 0.000E+00 0.000E+00
BIGSUB   5        0    9.58984E+02 0.000E+00 0.000E+00 0.849E+00 0.266E+00 0.195E+03 0.000E+00 0.609E-06 0.000E+00 0.441E-01 0.500E-12 0.612E-09 0.612E-09 0.612E-09 0.612E-09 0.122E-08 0.441E-01 0.411E-03 0.100E-11 .00000E+00 0.000E+00 0.000E+00
BIGSUB   1        0   10.76460E+02 0.000E+00 0.000E+00 0.118E+01 0.352E+00 0.166E+03 0.000E+00 0.603E-06 0.000E+00 0.956E-01 0.646E-12 0.606E-09 0.606E-09 0.606E-09 0.606E-09 0.121E-08 0.956E-01 0.124E-02 0.100E-11 .00000E+00 0.000E+00 0.000E+00
BIGSUB   2        0   10.85095E+02 0.201E+00 0.000E+00 0.432E+00 0.178E+00 0.157E+03 0.000E+00 0.743E-06 0.000E+00 0.760E-01 0.725E-12 0.747E-09 0.747E-09 0.747E-09 0.747E-09 0.149E-08 0.760E-01 0.929E-03 0.100E-11 .00000E+00 0.000E+00 0.000E+00
BIGSUB   3        0   10.34257E+02 0.100E+00 0.000E+00 0.429E+00 0.190E+00 0.215E+03 0.000E+00 0.723E-04 0.000E+00 0.433E-01 0.235E-06 0.323E-05 0.515E-06 0.125E-04 0.208E-06 0.107E-07 0.433E-01 0.613E-03 0.100E-11 .00000E+00 0.000E+00 0.000E+00
BIGSUB   4        0   10.36293E+02 0.100E+00 0.000E+00 0.429E+00 0.190E+00 0.283E+03 0.000E+00 0.875E-06 0.000E+00 0.763E-01 0.137E-06 0.232E-05 0.370E-06 0.831E-05 0.149E-06 0.272E-08 0.763E-01 0.862E-03 0.100E-11 .00000E+00 0.000E+00 0.000E+00
BIGSUB   5        0   10.58984E+02 0.100E+00 0.000E+00 0.428E+00 0.184E+00 0.195E+03 0.000E+00 0.609E-06 0.000E+00 0.378E-01 0.500E-12 0.612E-09 0.612E-09 0.612E-09 0.612E-09 0.122E-08 0.378E-01 0.343E-03 0.100E-11 .00000E+00 0.000E+00 0.000E+00
BIGSUB   1        0   11.76460E+02 0.000E+00 0.000E+00 0.141E+01 0.419E+00 0.166E+03 0.000E+00 0.603E-06 0.000E+00 0.897E-01 0.646E-12 0.606E-09 0.606E-09 0.606E-09 0.606E-09 0.121E-08 0.897E-01 0.116E-02 0.100E-11 .00000E+00 0.000E+00 0.000E+00
BIGSUB   2        0   11.85095E+02 0.000E+00 0.000E+00 0.141E+01 0.455E+00 0.156E+03 0.000E+00 0.743E-06 0.000E+00 0.709E-01 0.725E-12 0.747E-09 0.747E-09 0.747E-09 0.747E-09 0.149E-08 0.709E-01 0.862E-03 0.100E-11 .00000E+00 0.000E+00 0.000E+00
BIGSUB   3        0   11.34257E+02 0.000E+00 0.000E+00 0.140E+01 0.492E+00 0.214E+03 0.000E+00 0.522E-03 0.000E+00 0.389E-01 0.191E-06 0.263E-05 0.420E-06 0.102E-04 0.170E-06 0.903E-08 0.384E-01 0.540E-03 0.100E-11 .00000E+00 0.000E+00 0.000E+00
BIGSUB   4        0   11.36293E+02 0.000E+00 0.000E+00 0.140E+01 0.450E+00 0.283E+03 0.000E+00 0.377E-03 0.000E+00 0.695E-01 0.116E-06 0.197E-05 0.313E-06 0.703E-05 0.126E-06 0.257E-08 0.692E-01 0.770E-03 0.100E-11 .00000E+00 0.000E+00 0.000E+00
BIGSUB   5        0   11.58984E+02 0.000E+00 0.000E+00 0.140E+01 0.444E+00 0.194E+03 0.000E+00 0.609E-06 0.000E+00 0.325E-01 0.500E-12 0.612E-09 0.612E-09 0.612E-09 0.612E-09 0.122E-08 0.325E-01 0.288E-03 0.100E-11 .00000E+00 0.000E+00 0.000E+00
BIGSUB   1        0   12.76460E+02 0.000E+00 0.000E+00 0.106E+01 0.316E+00 0.165E+03 0.000E+00 0.603E-06 0.000E+00 0.844E-01 0.646E-12 0.606E-09 0.606E-09 0.606E-09 0.606E-09 0.121E-08 0.844E-01 0.110E-02 0.100E-11 .00000E+00 0.000E+00 0.000E+00
BIGSUB   2        0   12.85095E+02 0.000E+00 0.000E+00 0.106E+01 0.341E+00 0.156E+03 0.000E+00 0.743E-06 0.000E+00 0.665E-01 0.725E-12 0.747E-09 0.747E-09 0.747E-09 0.747E-09 0.149E-08 0.665E-01 0.803E-03 0.100E-11 .00000E+00 0.000E+00 0.000E+00
BIGSUB   3        0   12.34257E+02 0.000E+00 0.000E+00 0.105E+01 0.366E+00 0.214E+03 0.000E+00 0.426E-03 0.000E+00 0.347E-01 0.156E-06 0.215E-05 0.343E-06 0.832E-05 0.138E-06 0.767E-08 0.343E-01 0.478E-03 0.100E-11 .00000E+00 0.000E+00 0.000E+00
BIGSUB   4        0   12.36293E+02 0.000E+00 0.000E+00 0.106E+01 0.334E+00 0.283E+03 0.000E+00 0.319E-03 0.000E+00 0.632E-01 0.980E-07 0.167E-05 0.266E-06 0.596E-05 0.107E-06 0.245E-08 0.629E-01 0.690E-03 0.100E-11 .00000E+00 0.000E+00 0.000E+00
BIGSUB   5        0   12.58984E+02 0.000E+00 0.000E+00 0.105E+01 0.333E+00 0.194E+03 0.000E+00 0.609E-06 0.000E+00 0.282E-01 0.500E-12 0.612E-09 0.612E-09 0.612E-09 0.612E-09 0.122E-08 0.282E-01 0.243E-03 0.100E-11 .00000E+00 0.000E+00 0.000E+00
BIGSUB   1        0   13.76460E+02 0.000E+00 0.000E+00 0.122E+01 0.360E+00 0.165E+03 0.000E+00 0.603E-06 0.000E+00 0.797E-01 0.646E-12 0.606E-09 0.606E-09 0.606E-09 0.606E-09 0.121E-08 0.797E-01 0.104E-02 0.100E-11 .00000E+00 0.000E+00 0.000E+00
BIGSUB   2        0   13.85095E+02 0.000E+00 0.000E+00 0.122E+01 0.387E+00 0.156E+03 0.000E+00 0.743E-06 0.000E+00 0.626E-01 0.725E-12 0.747E-09 0.747E-09 0.747E-09 0.747E-09 0.149E-08 0.626E-01 0.751E-03 0.100E-11 .00000E+00 0.000E+00 0.000E+00
BIGSUB   3        0   13.34257E+02 0.000E+00 0.000E+00 0.121E+01 0.411E+00 0.213E+03 0.000E+00 0.347E-03 0.000E+00 0.311E-01 0.127E-06 0.175E-05 0.279E-06 0.679E-05 0.113E-06 0.656E-08 0.308E-01 0.425E-03 0.100E-11 .00000E+00 0.000E+00 0.000E+00
BIGSUB   4        0   13.36293E+02 0.000E+00 0.000E+00 0.121E+01 0.369E+00 0.282E+03 0.000E+00 0.270E-03 0.000E+00 0.577E-01 0.830E-07 0.141E-05 0.225E-06 0.505E-05 0.906E-07 0.234E-08 0.574E-01 0.621E-03 0.100E-11 .00000E+00 0.000E+00 0.000E+00
BIGSUB   5        0   13.58984E+02 0.000E+00 0.000E+00 0.120E+01 0.374E+00 0.194E+03 0.000E+00 0.609E-06 0.000E+00 0.246E-01 0.500E-12 0.612E-09 0.612E-09 0.612E-09 0.612E-09 0.122E-08 0.246E-01 0.205E-03 0.100E-11 .00000E+00 0.000E+00 0.000E+00
BIGSUB   1        0   14.76460E+02 0.000E+00 0.000E+00 0.877E+00 0.259E+00 0.165E+03 0.000E+00 0.603E-06 0.000E+00 0.753E-01 0.646E-12 0.606E-09 0.606E-09 0.606E-09 0.606E-09 0.121E-08 0.753E-01 0.982E-03 0.100E-11 .00000E+00 0.000E+00 0.000E+00
BIGSUB   2        0   14.85095E+02 0.000E+00 0.000E+00 0.877E+00 0.277E+00 0.155E+03 0.000E+00 0.743E-06 0.000E+00 0.590E-01 0.725E-12 0.747E-09 0.747E-09 0.747E-09 0.747E-09 0.149E-08 0.590E-01 0.705E-03 0.100E-11 .00000E+00 0.000E+00 0.000E+00
BIGSUB   3        0   14.34257E+02 0.000E+00 0.000E+00 0.868E+00 0.292E+00 0.213E+03 0.000E+00 0.283E-03 0.000E+00 0.280E-01 0.104E-06 0.143E-05 0.228E-06 0.553E-05 0.923E-07 0.565E-08 0.278E-01 0.381E-03 0.100E-11 .00000E+00 0.000E+00 0.000E+00
BIGSUB   4        0   14.36293E+02 0.000E+00 0.000E+00 0.870E+00 0.261E+00 0.282E+03 0.000E+00 0.229E-03 0.000E+00 0.529E-01 0.703E-07 0.120E-05 0.191E-06 0.427E-05 0.769E-07 0.225E-08 0.526E-01 0.561E-03 0.100E-11 .00000E+00 0.000E+00 0.000E+00
BIGSUB   5        0   14.58984E+02 0.000E+00 0.000E+00 0.865E+00 0.267E+00 0.193E+03 0.000E+00 0.609E-06 0.000E+00 0.216E-01 0.500E-12 0.612E-09 0.612E-09 0.612E-09 0.612E-09 0.122E-08 0.216E-01 0.175E-03 0.100E-11 .00000E+00 0.000E+00 0.000E+00
BIGSUB   1        0   15.76460E+02 0.000E+00 0.000E+00 0.111E+01 0.329E+00 0.165E+03 0.000E+00 0.603E-06 0.000E+00 0.714E-01 0.646E-12 0.606E-09 0.606E-09 0.606E-09 0.606E-09 0.121E-08 0.714E-01 0.932E-03 0.100E-11 .00000E+00 0.000E+00 0.000E+00
BIGSUB   2        0   15.85095E+02 0.000E+00 0.000E+00 0.111E+01 0.351E+00 0.155E+03 0.000E+00 0.743E-06 0.000E+00 0.558E-01 0.725E-12 0.747E-09 0.747E-09 0.747E-09 0.747E-09 0.149E-08 0.558E-01 0.664E-03 0.100E-11 .00000E+00 0.000E+00 0.000E+00
BIGSUB   3        0   15.34257E+02 0.000E+00 0.000E+00 0.110E+01 0.369E+00 0.213E+03 0.000E+00 0.231E-03 0.000E+00 0.254E-01 0.844E-07 0.116E-05 0.186E-06 0.451E-05 0.754E-07 0.491E-08 0.252E-01 0.342E-03 0.100E-11 .00000E+00 0.000E+00 0.000E+00
BIGSUB   4        0   15.36293E+02 0.000E+00 0.000E+00 0.111E+01 0.329E+00 0.282E+03 0.000E+00 0.194E-03 0.000E+00 0.486E-01 0.595E-07 0.101E-05 0.162E-06 0.362E-05 0.652E-07 0.218E-08 0.484E-01 0.509E-03 0.100E-11 .00000E+00 0.000E+00 0.000E+00
BIGSUB   5        0   15.58984E+02 0.000E+00 0.000E+00 0.110E+01 0.339E+00 0.193E+03 0.000E+00 0.609E-06 0.000E+00 0.191E-01 0.500E-12 0.612E-09 0.612E-09 0.612E-09 0.612E-09 0.122E-08 0.191E-01 0.149E-03 0.100E-11 .00000E+00 0.000E+00 0.000E+00
BIGSUB   1        0   16.76460E+02 0.000E+00 0.000E+00 0.106E+01 0.314E+00 0.164E+03 0.000E+00 0.603E-06 0.000E+00 0.678E-01 0.646E-12 0.606E-09 0.606E-09 0.606E-09 0.606E-09 0.121E-08 0.678E-01 0.885E-03 0.100E-11 .00000E+00 0.000E+00 0.000E+00
BIGSUB   2        0   16.85095E+02 0.000E+00 0.000E+00 0.106E+01 0.335E+00 0.155E+03 0.000E+00 0.743E-06 0.000E+00 0.528E-01 0.725E-12 0.747E-09 0.747E-09 0.747E-09 0.747E-09 0.149E-08 0.528E-01 0.627E-03 0.100E-11 .00000E+00 0.000E+00 0.000E+00
BIGSUB   3        0   16.34257E+02 0.000E+00 0.000E+00 0.105E+01 0.352E+00 0.212E+03 0.000E+00 0.188E-03 0.000E+00 0.232E-01 0.688E-07 0.949E-06 0.152E-06 0.368E-05 0.616E-07 0.431E-08 0.230E-01 0.309E-03 0.100E-11 .00000E+00 0.000E+00 0.000E+00
BIGSUB   4        0   16.36293E+02 0.000E+00 0.000E+00 0.105E+01 0.314E+00 0.281E+03 0.000E+00 0.165E-03 0.000E+00 0.448E-01 0.504E-07 0.858E-06 0.137E-06 0.306E-05 0.554E-07 0.211E-08 0.447E-01 0.464E-03 0.100E-11 .00000E+00 0.000E+00 0.000E+00
BIGSUB   5        0   16.58984E+02 0.000E+00 0.000E+00 0.105E+01 0.326E+00 0.193E+03 0.000E+00 0.609E-06 0.000E+00 0.170E-01 0.500E-12 0.612E-09 0.612E-09 0.612E-09 0.612E-09 0.122E-08 0.170E-01 0.128E-03 0.100E-11 .00000E+00 0.000E+00 0.000E+00
BIGSUB   1        0   17.76460E+02 0.000E+00 0.000E+00 0.776E+00 0.229E+00 0.164E+03 0.000E+00 0.603E-06 0.000E+00 0.645E-01 0.646E-12 0.606E-09 0.606E-09 0.606E-09 0.606E-09 0.121E-08 0.645E-01 0.843E-03 0.100E-11 .00000E+00 0.000E+00 0.000E+00
BIGSUB   2        0   17.85095E+02 0.000E+00 0.000E+00 0.775E+00 0.243E+00 0.154E+03 0.000E+00 0.743E-06 0.000E+00 0.501E-01 0.725E-12 0.747E-09 0.747E-09 0.747E-09 0.747E-09 0.149E-08 0.501E-01 0.593E-03 0.100E-11 .00000E+00 0.000E+00 0.000E+00
BIGSUB   3        0   17.34257E+02 0.000E+00 0.000E+00 0.767E+00 0.254E+00 0.212E+03 0.000E+00 0.154E-03 0.000E+00 0.212E-01 0.561E-07 0.773E-06 0.124E-06 0.300E-05 0.504E-07 0.382E-08 0.211E-01 0.281E-03 0.100E-11 .00000E+00 0.000E+00 0.000E+00
BIGSUB   4        0   17.36293E+02 0.000E+00 0.000E+00 0.769E+00 0.226E+00 0.281E+03 0.000E+00 0.140E-03 0.000E+00 0.415E-01 0.427E-07 0.726E-06 0.116E-06 0.260E-05 0.470E-07 0.206E-08 0.414E-01 0.424E-03 0.100E-11 .00000E+00 0.000E+00 0.000E+00
BIGSUB   5        0   17.58984E+02 0.000E+00 0.000E+00 0.765E+00 0.236E+00 0.192E+03 0.000E+00 0.609E-06 0.000E+00 0.152E-01 0.500E-12 0.612E-09 0.612E-09 0.612E-09 0.612E-09 0.122E-08 0.152E-01 0.111E-03 0.100E-11 .00000E+00 0.000E+00 0.000E+00
BIGSUB   1        0   18.76460E+02 0.000E+00 0.000E+00 0.843E+00 0.249E+00 0.164E+03 0.000E+00 0.603E-06 0.000E+00 0.614E-01 0.646E-12 0.606E-09 0.606E-09 0.606E-09 0.606E-09 0.121E-08 0.614E-01 0.803E-03 0.100E-11 .00000E+00 0.000E+00 0.000E+00
BIGSUB   2        0   18.85095E+02 0.000E+00 0.000E+00 0.843E+00 0.265E+00 0.154E+03 0.000E+00 0.743E-06 0.000E+00 0.477E-01 0.725E-12 0.747E-09 0.747E-09 0.747E-09 0.747E-09 0.149E-08 0.477E-01 0.563E-03 0.100E-11 .00000E+00 0.000E+00 0.000E+00
BIGSUB   3        0   18.34257E+02 0.000E+00 0.000E+00 0.834E+00 0.276E+00 0.212E+03 0.000E+00 0.126E-03 0.000E+00 0.195E-01 0.457E-07 0.631E-06 0.101E-06 0.244E-05 0.412E-07 0.342E-08 0.194E-01 0.256E-03 0.100E-11 .00000E+00 0.000E+00 0.000E+00
BIGSUB   4        0   18.36293E+02 0.000E+00 0.000E+00 0.836E+00 0.245E+00 0.281E+03 0.000E+00 0.118E-03 0.000E+00 0.386E-01 0.362E-07 0.615E-06 0.985E-07 0.220E-05 0.400E-07 0.201E-08 0.384E-01 0.389E-03 0.100E-11 .00000E+00 0.000E+00 0.000E+00
BIGSUB   5        0   18.58984E+02 0.000E+00 0.000E+00 0.831E+00 0.257E+00 0.192E+03 0.000E+00 0.609E-06 0.000E+00 0.137E-01 0.500E-12 0.612E-09 0.612E-09 0.612E-09 0.612E-09 0.122E-08 0.137E-01 0.963E-04 0.100E-11 .00000E+00 0.000E+00 0.000E+00
BIGSUB   1        0   19.76460E+02 0.000E+00 0.000E+00 0.134E+01 0.396E+00 0.163E+03 0.000E+00 0.603E-06 0.000E+00 0.585E-01 0.646E-12 0.606E-09 0.606E-09 0.606E-09 0.606E-09 0.121E-08 0.585E-01 0.766E-03 0.100E-11 .00000E+00 0.000E+00 0.000E+00
BIGSUB   2        0   19.85095E+02 0.000E+00 0.000E+00 0.134E+01 0.423E+00 0.154E+03 0.000E+00 0.743E-06 0.000E+00 0.454E-01 0.725E-12 0.747E-09 0.747E-09 0.747E-09 0.747E-09 0.149E-08 0.454E-01 0.534E-03 0.100E-11 .00000E+00 0.000E+00 0.000E+00
BIGSUB   3        0   19.34257E+02 0.000E+00 0.000E+00 0.133E+01 0.442E+00 0.211E+03 0.000E+00 0.102E-03 0.000E+00 0.180E-01 0.373E-07 0.514E-06 0.826E-07 0.199E-05 0.338E-07 0.310E-08 0.179E-01 0.235E-03 0.100E-11 .00000E+00 0.000E+00 0.000E+00
BIGSUB   4        0   19.36293E+02 0.000E+00 0.000E+00 0.133E+01 0.395E+00 0.280E+03 0.000E+00 0.100E-03 0.000E+00 0.359E-01 0.306E-07 0.521E-06 0.836E-07 0.186E-05 0.340E-07 0.197E-08 0.358E-01 0.358E-03 0.100E-11 .00000E+00 0.000E+00 0.000E+00
BIGSUB   5        0   19.58984E+02 0.000E+00 0.000E+00 0.133E+01 0.415E+00 0.192E+03 0.000E+00 0.609E-06 0.000E+00 0.124E-01 0.500E-12 0.612E-09 0.612E-09 0.612E-09 0.612E-09 0.122E-08 0.124E-01 0.843E-04 0.100E-11 .00000E+00 0.000E+00 0.000E+00
BIGSUB   1        0   20.76460E+02 0.000E+00 0.000E+00 0.156E+01 0.475E+00 0.163E+03 0.000E+00 0.603E-06 0.000E+00 0.558E-01 0.646E-12 0.606E-09 0.606E-09 0.606E-09 0.606E-09 0.121E-08 0.558E-01 0.731E-03 0.100E-11 .00000E+00 0.000E+00 0.000E+00
BIGSUB   2        0   20.85095E+02 0.000E+00 0.000E+00 0.156E+01 0.510E+00 0.153E+03 0.000E+00 0.743E-06 0.000E+00 0.432E-01 0.725E-12 0.747E-09 0.747E-09 0.747E-09 0.747E-09 0.149E-08 0.432E-01 0.508E-03 0.100E-11 .00000E+00 0.000E+00 0.000E+00
BIGSUB   3        0   20.34257E+02 0.000E+00 0.000E+00 0.155E+01 0.537E+00 0.211E+03 0.000E+00 0.837E-04 0.000E+00 0.167E-01 0.304E-07 0.419E-06 0.675E-07 0.162E-05 0.277E-07 0.283E-08 0.167E-01 0.216E-03 0.100E-11 .00000E+00 0.000E+00 0.000E+00
BIGSUB   4        0   20.36293E+02 0.000E+00 0.000E+00 0.155E+01 0.489E+00 0.280E+03 0.000E+00 0.851E-04 0.000E+00 0.336E-01 0.259E-07 0.442E-06 0.709E-07 0.158E-05 0.289E-07 0.194E-08 0.335E-01 0.331E-03 0.100E-11 .00000E+00 0.000E+00 0.000E+00
BIGSUB   5        0   20.58984E+02 0.000E+00 0.000E+00 0.154E+01 0.517E+00 0.191E+03 0.000E+00 0.609E-06 0.000E+00 0.113E-01 0.500E-12 0.612E-09 0.612E-09 0.612E-09 0.612E-09 0.122E-08 0.113E-01 0.742E-04 0.100E-11 .00000E+00 0.000E+00 0.000E+00
BIGSUB   1        0   21.76460E+02 0.000E+00 0.000E+00 0.106E+01 0.313E+00 0.163E+03 0.000E+00 0.603E-06 0.000E+00 0.533E-01 0.646E-12 0.606E-09 0.606E-09 0.606E-09 0.606E-09 0.121E-08 0.533E-01 0.699E-03 0.100E-11 .00000E+00 0.000E+00 0.000E+00
BIGSUB   2        0   21.85095E+02 0.000E+00 0.000E+00 0.106E+01 0.335E+00 0.153E+03 0.000E+00 0.743E-06 0.000E+00 0.413E-01 0.725E-12 0.747E-09 0.747E-09 0.747E-09 0.747E-09 0.149E-08 0.413E-01 0.484E-03 0.100E-11 .00000E+00 0.000E+00 0.000E+00
BIGSUB   3        0   21.34257E+02 0.000E+00 0.000E+00 0.105E+01 0.349E+00 0.210E+03 0.000E+00 0.684E-04 0.000E+00 0.156E-01 0.248E-07 0.342E-06 0.552E-07 0.132E-05 0.227E-07 0.261E-08 0.155E-01 0.199E-03 0.100E-11 .00000E+00 0.000E+00 0.000E+00
BIGSUB   4        0   21.36293E+02 0.000E+00 0.000E+00 0.105E+01 0.312E+00 0.280E+03 0.000E+00 0.722E-04 0.000E+00 0.314E-01 0.220E-07 0.374E-06 0.602E-07 0.134E-05 0.246E-07 0.191E-08 0.314E-01 0.307E-03 0.100E-11 .00000E+00 0.000E+00 0.000E+00
BIGSUB   5        0   21.58984E+02 0.000E+00 0.000E+00 0.105E+01 0.334E+00 0.191E+03 0.000E+00 0.609E-06 0.000E+00 0.104E-01 0.500E-12 0.612E-09 0.612E-09 0.612E-09 0.612E-09 0.122E-08 0.104E-01 0.657E-04 0.100E-11 .00000E+00 0.000E+00 0.000E+00
BIGSUB   1        0   22.76460E+02 0.000E+00 0.000E+00 0.978E+00 0.287E+00 0.162E+03 0.000E+00 0.603E-06 0.000E+00 0.510E-01 0.646E-12 0.606E-09 0.606E-09 0.606E-09 0.606E-09 0.121E-08 0.510E-01 0.668E-03 0.100E-11 .00000E+00 0.000E+00 0.000E+00
BIGSUB   2        0   22.85095E+02 0.000E+00 0.000E+00 0.977E+00 0.306E+00 0.153E+03 0.000E+00 0.743E-06 0.000E+00 0.394E-01 0.725E-12 0.747E-09 0.747E-09 0.747E-09 0.747E-09 0.149E-08 0.394E-01 0.462E-03 0.100E-11 .00000E+00 0.000E+00 0.000E+00
BIGSUB   3        0   22.34257E+02 0.000E+00 0.000E+00 0.968E+00 0.316E+00 0.210E+03 0.000E+00 0.559E-04 0.000E+00 0.146E-01 0.202E-07 0.279E-06 0.451E-07 0.108E-05 0.187E-07 0.244E-08 0.145E-01 0.184E-03 0.100E-11 .00000E+00 0.000E+00 0.000E+00
BIGSUB   4        0   22.36293E+02 0.000E+00 0.000E+00 0.970E+00 0.278E+00 0.279E+03 0.000E+00 0.613E-04 0.000E+00 0.295E-01 0.186E-07 0.317E-06 0.511E-07 0.113E-05 0.210E-07 0.189E-08 0.295E-01 0.286E-03 0.100E-11 .00000E+00 0.000E+00 0.000E+00
BIGSUB   5        0   22.58984E+02 0.000E+00 0.000E+00 0.966E+00 0.303E+00 0.191E+03 0.000E+00 0.609E-06 0.000E+00 0.954E-02 0.500E-12 0.612E-09 0.612E-09 0.612E-09 0.612E-09 0.122E-08 0.954E-02 0.586E-04 0.100E-11 .00000E+00 0.000E+00 0.000E+00
BIGSUB   1        0   23.76460E+02 0.000E+00 0.000E+00 0.151E+01 0.448E+00 0.162E+03 0.000E+00 0.603E-06 0.000E+00 0.487E-01 0.646E-12 0.606E-09 0.606E-09 0.606E-09 0.606E-09 0.121E-08 0.487E-01 0.639E-03 0.100E-11 .00000E+00 0.000E+00 0.000E+00
BIGSUB   2        0   23.85095E+02 0.000E+00 0.000E+00 0.151E+01 0.476E+00 0.152E+03 0.000E+00 0.743E-06 0.000E+00 0.376E-01 0.725E-12 0.747E-09 0.747E-09 0.747E-09 0.747E-09 0.149E-08 0.376E-01 0.440E-03 0.100E-11 .00000E+00 0.000E+00 0.000E+00
BIGSUB   3        0   23.34257E+02 0.000E+00 0.000E+00 0.150E+01 0.492E+00 0.210E+03 0.000E+00 0.457E-04 0.000E+00 0.137E-01 0.165E-07 0.227E-06 0.369E-07 0.880E-06 0.154E-07 0.229E-08 0.136E-01 0.171E-03 0.100E-11 .00000E+00 0.000E+00 0.000E+00
BIGSUB   4        0   23.36293E+02 0.000E+00 0.000E+00 0.150E+01 0.434E+00 0.279E+03 0.000E+00 0.520E-04 0.000E+00 0.278E-01 0.158E-07 0.269E-06 0.434E-07 0.958E-06 0.179E-07 0.187E-08 0.277E-01 0.267E-03 0.100E-11 .00000E+00 0.000E+00 0.000E+00
BIGSUB   5        0   23.58984E+02 0.000E+00 0.000E+00 0.149E+01 0.480E+00 0.190E+03 0.000E+00 0.609E-06 0.000E+00 0.882E-02 0.500E-12 0.612E-09 0.612E-09 0.612E-09 0.612E-09 0.122E-08 0.882E-02 0.526E-04 0.100E-11 .00000E+00 0.000E+00 0.000E+00
BIGSUB   1        0   24.76460E+02 0.261E+01 0.000E+00 0.985E+00 0.418E+00 0.164E+03 0.000E+00 0.140E-02 0.000E+00 0.552E-01 0.143E-04 0.101E-03 0.197E-04 0.827E-03 0.690E-05 0.683E-06 0.538E-01 0.108E-02 0.100E-11 .11609E-02 0.247E-04 0.388E-03
BIGSUB   2        0   24.85095E+02 0.000E+00 0.000E+00 0.118E+01 0.362E+00 0.152E+03 0.000E+00 0.743E-06 0.000E+00 0.360E-01 0.725E-12 0.747E-09 0.747E-09 0.747E-09 0.747E-09 0.149E-08 0.360E-01 0.421E-03 0.100E-11 .00000E+00 0.000E+00 0.000E+00
BIGSUB   3        0   24.34257E+02 0.000E+00 0.000E+00 0.117E+01 0.367E+00 0.209E+03 0.000E+00 0.374E-04 0.000E+00 0.128E-01 0.134E-07 0.186E-06 0.303E-07 0.717E-06 0.127E-07 0.218E-08 0.128E-01 0.160E-03 0.100E-11 .00000E+00 0.000E+00 0.000E+00
BIGSUB   4        0   24.36293E+02 0.000E+00 0.000E+00 0.117E+01 0.317E+00 0.279E+03 0.000E+00 0.442E-04 0.000E+00 0.262E-01 0.133E-07 0.228E-06 0.369E-07 0.812E-06 0.153E-07 0.185E-08 0.262E-01 0.250E-03 0.100E-11 .00000E+00 0.000E+00 0.000E+00
BIGSUB   5        0   24.58984E+02 0.000E+00 0.000E+00 0.116E+01 0.355E+00 0.190E+03 0.000E+00 0.609E-06 0.000E+00 0.820E-02 0.500E-12 0.612E-09 0.612E-09 0.612E-09 0.612E-09 0.122E-08 0.820E-02 0.474E-04 0.100E-11 .00000E+00 0.000E+00 0.000E+00
BIGSUB   1        0   25.76460E+02 0.422E+01 0.000E+00 0.110E+01 0.467E+00 0.167E+03 0.000E+00 0.162E-01 0.000E+00 0.109E+00 0.244E-03 0.729E-03 0.101E-03 0.116E-02 0.119E-04 0.166E-04 0.924E-01 0.190E-02 0.100E-11 .47691E-02 0.533E-01 0.204E-02
BIGSUB   2        0   25.85095E+02 0.744E+01 0.000E+00 0.110E+01 0.512E+00 0.158E+03 0.000E+00 0.743E-06 0.000E+00 0.966E-01 0.725E-12 0.747E-09 0.747E-09 0.747E-09 0.747E-09 0.149E-08 0.966E-01 0.191E-02 0.100E-11 .00000E+00 0.000E+00 0.000E+00
BIGSUB   3        0   25.34257E+02 0.432E+01 0.000E+00 0.109E+01 0.594E+00 0.213E+03 0.000E+00 0.142E-01 0.000E+00 0.643E-01 0.307E-03 0.618E-03 0.799E-04 0.149E-02 0.108E-04 0.235E-04 0.501E-01 0.177E-02 0.100E-11 .14366E-01 0.218E-01 0.157E-02
BIGSUB   4        0   25.36293E+02 0.432E+01 0.000E+00 0.110E+01 0.633E+00 0.282E+03 0.000E+00 0.176E-01 0.000E+00 0.826E-01 0.146E-03 0.804E-03 0.107E-03 0.171E-02 0.122E-04 0.178E-04 0.650E-01 0.205E-02 0.100E-11 .13671E-01 0.384E-01 0.204E-02
BIGSUB   5        0   25.58984E+02 0.432E+01 0.000E+00 0.109E+01 0.554E+00 0.193E+03 0.000E+00 0.609E-06 0.000E+00 0.560E-01 0.500E-12 0.612E-09 0.612E-09 0.612E-09 0.612E-09 0.122E-08 0.560E-01 0.208E-02 0.100E-11 .00000E+00 0.000E+00 0.000E+00
BIGSUB   1        0   26.76460E+02 0.200E+02 0.000E+00 0.519E+00 0.272E+00 0.182E+03 0.000E+00 0.295E+00 0.000E+00 0.797E+00 0.157E-01 0.277E-01 0.339E-02 0.133E-02 0.642E-04 0.726E-03 0.502E+00 0.112E-01 0.100E-11 .76768E-02 0.376E+01 0.207E-01
BIGSUB   2        0   26.85095E+02 0.180E+02 0.000E+00 0.519E+00 0.299E+00 0.172E+03 0.000E+00 0.743E-06 0.000E+00 0.441E+00 0.725E-12 0.747E-09 0.747E-09 0.747E-09 0.747E-09 0.149E-08 0.441E+00 0.948E-02 0.100E-11 .00000E+00 0.000E+00 0.000E+00
BIGSUB   3        0   26.34257E+02 0.123E+02 0.000E+00 0.514E+00 0.351E+00 0.222E+03 0.000E+00 0.988E-01 0.000E+00 0.468E+00 0.145E-02 0.384E-02 0.494E-03 0.150E-02 0.345E-04 0.132E-03 0.369E+00 0.913E-02 0.100E-11 .17573E-01 0.226E+00 0.977E-02
BIGSUB   4        0   26.36293E+02 0.123E+02 0.000E+00 0.515E+00 0.393E+00 0.291E+03 0.000E+00 0.117E+00 0.000E+00 0.498E+00 0.914E-03 0.505E-02 0.655E-03 0.167E-02 0.379E-04 0.110E-03 0.380E+00 0.103E-01 0.100E-11 .16369E-01 0.354E+00 0.121E-01
BIGSUB   5        0   26.58984E+02 0.123E+02 0.000E+00 0.513E+00 0.346E+00 0.203E+03 0.000E+00 0.609E-06 0.000E+00 0.458E+00 0.500E-12 0.612E-09 0.612E-09 0.612E-09 0.612E-09 0.122E-08 0.458E+00 0.107E-01 0.100E-11 .00000E+00 0.000E+00 0.000E+00
BIGSUB   1        0   27.76460E+02 0.211E+01 0.000E+00 0.560E+00 0.287E+00 0.184E+03 0.000E+00 0.107E-01 0.000E+00 0.493E+00 0.801E-03 0.158E-02 0.192E-03 0.104E-03 0.284E-05 0.345E-04 0.482E+00 0.109E-01 0.100E-11 .10952E-01 0.119E+00 0.217E-02
BIGSUB   2        0   27.85095E+02 0.211E+01 0.000E+00 0.560E+00 0.315E+00 0.174E+03 0.000E+00 0.743E-06 0.000E+00 0.414E+00 0.725E-12 0.747E-09 0.747E-09 0.747E-09 0.747E-09 0.149E-08 0.414E+00 0.869E-02 0.100E-11 .00000E+00 0.000E+00 0.000E+00
BIGSUB   3        0   27.34257E+02 0.121E+01 0.000E+00 0.555E+00 0.370E+00 0.223E+03 0.000E+00 0.122E-01 0.000E+00 0.347E+00 0.114E-03 0.336E-03 0.443E-04 0.238E-03 0.524E-05 0.991E-05 0.335E+00 0.830E-02 0.100E-11 .23877E+00 0.741E-01 0.146E-02
BIGSUB   4        0   27.36293E+02 0.121E+01 0.000E+00 0.556E+00 0.412E+00 0.292E+03 0.000E+00 0.361E-02 0.000E+00 0.359E+00 0.270E-04 0.146E-03 0.195E-04 0.100E-03 0.219E-05 0.308E-05 0.356E+00 0.961E-02 0.100E-11 .13341E-01 0.881E-02 0.103E-02
BIGSUB   5        0   27.58984E+02 0.121E+01 0.000E+00 0.553E+00 0.361E+00 0.203E+03 0.000E+00 0.609E-06 0.000E+00 0.411E+00 0.500E-12 0.612E-09 0.612E-09 0.612E-09 0.612E-09 0.122E-08 0.411E+00 0.936E-02 0.100E-11 .00000E+00 0.000E+00 0.000E+00
BIGSUB   1        0   28.76460E+02 0.844E+01 0.000E+00 0.818E+00 0.390E+00 0.189E+03 0.000E+00 0.749E-01 0.000E+00 0.723E+00 0.145E-02 0.358E-02 0.460E-03 0.346E-03 0.251E-04 0.946E-04 0.648E+00 0.145E-01 0.100E-11 .59412E-02 0.402E+00 0.788E-02
BIGSUB   2        0   28.85095E+02 0.402E+01 0.000E+00 0.818E+00 0.431E+00 0.176E+03 0.000E+00 0.743E-06 0.000E+00 0.435E+00 0.725E-12 0.747E-09 0.747E-09 0.747E-09 0.747E-09 0.149E-08 0.435E+00 0.887E-02 0.100E-11 .00000E+00 0.000E+00 0.000E+00
BIGSUB   3        0   28.34257E+02 0.332E+01 0.000E+00 0.811E+00 0.511E+00 0.225E+03 0.000E+00 0.127E-01 0.000E+00 0.387E+00 0.175E-03 0.585E-03 0.752E-04 0.250E-03 0.104E-04 0.149E-04 0.374E+00 0.915E-02 0.100E-11 .28859E-01 0.227E-01 0.156E-02
BIGSUB   4        0   28.36293E+02 0.332E+01 0.000E+00 0.813E+00 0.568E+00 0.293E+03 0.000E+00 0.111E-01 0.000E+00 0.413E+00 0.114E-03 0.680E-03 0.887E-04 0.208E-03 0.999E-05 0.124E-04 0.402E+00 0.110E-01 0.100E-11 .16628E-01 0.340E-01 0.178E-02
BIGSUB   5        0   28.58984E+02 0.332E+01 0.000E+00 0.810E+00 0.495E+00 0.205E+03 0.000E+00 0.609E-06 0.000E+00 0.456E+00 0.500E-12 0.612E-09 0.612E-09 0.612E-09 0.612E-09 0.122E-08 0.456E+00 0.968E-02 0.100E-11 .00000E+00 0.000E+00 0.000E+00
BIGSUB   1        0   29.76460E+02 0.352E+01 0.000E+00 0.289E+00 0.189E+00 0.191E+03 0.000E+00 0.120E-01 0.000E+00 0.663E+00 0.299E-03 0.861E-03 0.115E-03 0.119E-03 0.105E-04 0.178E-04 0.651E+00 0.148E-01 0.100E-11 .24797E-02 0.725E-01 0.298E-02
BIGSUB   2        0   29.85095E+02 0.995E+01 0.000E+00 0.289E+00 0.201E+00 0.183E+03 0.000E+00 0.743E-06 0.000E+00 0.644E+00 0.725E-12 0.747E-09 0.747E-09 0.747E-09 0.747E-09 0.149E-08 0.644E+00 0.128E-01 0.100E-11 .00000E+00 0.000E+00 0.000E+00
BIGSUB   3        0   29.34257E+02 0.593E+01 0.000E+00 0.286E+00 0.225E+00 0.230E+03 0.000E+00 0.278E-01 0.000E+00 0.516E+00 0.386E-03 0.173E-02 0.221E-03 0.305E-03 0.180E-04 0.390E-04 0.488E+00 0.109E-01 0.100E-11 .15247E-01 0.978E-01 0.281E-02
BIGSUB   4        0   29.36293E+02 0.593E+01 0.000E+00 0.287E+00 0.247E+00 0.298E+03 0.000E+00 0.368E-01 0.000E+00 0.558E+00 0.477E-03 0.229E-02 0.294E-03 0.284E-03 0.183E-04 0.541E-04 0.521E+00 0.138E-01 0.100E-11 .15001E-01 0.152E+00 0.429E-02
BIGSUB   5        0   29.58984E+02 0.593E+01 0.000E+00 0.286E+00 0.225E+00 0.210E+03 0.000E+00 0.609E-06 0.000E+00 0.593E+00 0.500E-12 0.612E-09 0.612E-09 0.612E-09 0.612E-09 0.122E-08 0.593E+00 0.109E-01 0.100E-11 .00000E+00 0.000E+00 0.000E+00
BIGSUB   1        0   30.76460E+02 0.330E+02 0.000E+00 0.327E+00 0.203E+00 0.204E+03 0.821E+01 0.916E+00 0.000E+00 0.258E+01 0.441E-01 0.666E-01 0.808E-02 0.173E-02 0.161E-03 0.207E-02 0.167E+01 0.308E-01 0.100E-11 .95410E-02 0.900E+01 0.795E-01
BIGSUB   2        0   30.85095E+02 0.335E+02 0.000E+00 0.327E+00 0.219E+00 0.202E+03 0.330E+01 0.389E+00 0.000E+00 0.201E+01 0.234E-03 0.119E-03 0.174E-04 0.942E-03 0.169E-03 0.493E-04 0.163E+01 0.297E-01 0.100E-11 .29995E-02 0.109E-02 0.732E-01
BIGSUB   3        0   30.34257E+02 0.255E+02 0.000E+00 0.323E+00 0.248E+00 0.248E+03 0.000E+00 0.355E+00 0.000E+00 0.175E+01 0.109E-01 0.116E-01 0.145E-02 0.936E-03 0.817E-04 0.742E-03 0.140E+01 0.238E-01 0.100E-11 .19229E-01 0.663E+00 0.567E-01
BIGSUB   4        0   30.36293E+02 0.255E+02 0.000E+00 0.324E+00 0.275E+00 0.315E+03 0.000E+00 0.356E+00 0.000E+00 0.162E+01 0.292E-02 0.133E-01 0.172E-02 0.902E-03 0.833E-04 0.367E-03 0.127E+01 0.252E-01 0.100E-11 .17032E-01 0.969E+00 0.382E-01
BIGSUB   5        0   30.58984E+02 0.255E+02 0.000E+00 0.322E+00 0.248E+00 0.228E+03 0.000E+00 0.894E-03 0.000E+00 0.176E+01 0.500E-12 0.612E-09 0.612E-09 0.150E-04 0.296E-05 0.122E-08 0.176E+01 0.249E-01 0.100E-11 .10732E-05 0.000E+00 0.383E-01
BIGSUB   1        0   31.76460E+02 0.247E+02 0.000E+00 0.356E+00 0.215E+00 0.206E+03 0.112E+02 0.106E+01 0.000E+00 0.345E+01 0.179E-01 0.340E-01 0.418E-02 0.289E-02 0.239E-03 0.965E-03 0.239E+01 0.378E-01 0.100E-11 .10023E-01 0.426E+01 0.374E+00
BIGSUB   2        0   31.85095E+02 0.161E+02 0.000E+00 0.356E+00 0.232E+00 0.205E+03 0.670E+01 0.218E+00 0.000E+00 0.227E+01 0.112E-03 0.568E-04 0.829E-05 0.724E-03 0.943E-04 0.236E-04 0.206E+01 0.337E-01 0.100E-11 .24054E-02 0.507E-03 0.622E-01
BIGSUB   3        0   31.34257E+02 0.178E+02 0.000E+00 0.353E+00 0.266E+00 0.258E+03 0.128E+01 0.359E+00 0.000E+00 0.233E+01 0.856E-02 0.116E-01 0.146E-02 0.111E-02 0.104E-03 0.606E-03 0.198E+01 0.310E-01 0.100E-11 .24835E-01 0.749E+00 0.686E-01
BIGSUB   4        0   31.36293E+02 0.178E+02 0.000E+00 0.353E+00 0.297E+00 0.324E+03 0.237E+01 0.297E+00 0.000E+00 0.202E+01 0.311E-02 0.131E-01 0.167E-02 0.934E-03 0.846E-04 0.354E-03 0.172E+01 0.283E-01 0.100E-11 .19560E-01 0.994E+00 0.472E-01
BIGSUB   5        0   31.58984E+02 0.178E+02 0.000E+00 0.352E+00 0.266E+00 0.238E+03 0.133E+01 0.101E+00 0.000E+00 0.256E+01 0.372E-04 0.191E-04 0.279E-05 0.361E-03 0.598E-04 0.827E-05 0.246E+01 0.295E-01 0.100E-11 .95631E-03 0.142E-03 0.789E-01
BIGSUB   1        0   32.76460E+02 0.114E+02 0.000E+00 0.201E+00 0.156E+00 0.205E+03 0.714E+01 0.248E+00 0.000E+00 0.284E+01 0.920E-02 0.153E-01 0.187E-02 0.116E-02 0.811E-04 0.430E-03 0.259E+01 0.390E-01 0.100E-11 .10894E-01 0.217E+01 0.316E-01
BIGSUB   2        0   32.85095E+02 0.121E+02 0.000E+00 0.201E+00 0.161E+00 0.206E+03 0.617E+01 0.543E-01 0.000E+00 0.236E+01 0.162E-04 0.820E-05 0.120E-05 0.296E-03 0.359E-04 0.342E-05 0.231E+01 0.355E-01 0.100E-11 .44517E-03 0.305E-04 0.497E-01
BIGSUB   3        0   32.34257E+02 0.111E+02 0.000E+00 0.199E+00 0.171E+00 0.261E+03 0.341E+01 0.197E+00 0.000E+00 0.248E+01 0.571E-02 0.692E-02 0.864E-03 0.757E-03 0.600E-04 0.374E-03 0.228E+01 0.327E-01 0.100E-11 .29317E-01 0.417E+00 0.608E-01
BIGSUB   4        0   32.36293E+02 0.111E+02 0.000E+00 0.199E+00 0.181E+00 0.326E+03 0.477E+01 0.134E+00 0.000E+00 0.211E+01 0.183E-02 0.712E-02 0.906E-03 0.569E-03 0.455E-04 0.214E-03 0.198E+01 0.297E-01 0.100E-11 .19534E-01 0.515E+00 0.350E-01
BIGSUB   5        0   32.58984E+02 0.111E+02 0.000E+00 0.198E+00 0.171E+00 0.240E+03 0.326E+01 0.391E-01 0.000E+00 0.287E+01 0.192E-04 0.988E-05 0.144E-05 0.210E-03 0.314E-04 0.428E-05 0.283E+01 0.305E-01 0.100E-11 .22339E-03 0.541E-04 0.869E-01
BIGSUB   1        0   33.76460E+02 0.784E+01 0.000E+00 0.336E+00 0.207E+00 0.204E+03 0.494E+01 0.107E+00 0.000E+00 0.272E+01 0.171E-02 0.367E-02 0.470E-03 0.543E-03 0.405E-04 0.987E-04 0.261E+01 0.385E-01 0.100E-11 .43250E-02 0.357E+00 0.158E-01
BIGSUB   2        0   33.85095E+02 0.100E+02 0.000E+00 0.335E+00 0.223E+00 0.206E+03 0.539E+01 0.159E-01 0.000E+00 0.247E+01 0.431E-05 0.217E-05 0.318E-06 0.996E-04 0.124E-04 0.910E-06 0.246E+01 0.361E-01 0.100E-11 .84819E-04 0.111E-04 0.467E-01
BIGSUB   3        0   33.34257E+02 0.703E+01 0.000E+00 0.332E+00 0.254E+00 0.261E+03 0.315E+01 0.894E-01 0.000E+00 0.246E+01 0.105E-02 0.181E-02 0.239E-03 0.446E-03 0.317E-04 0.821E-04 0.237E+01 0.321E-01 0.100E-11 .35098E-01 0.583E-01 0.123E-01
BIGSUB   4        0   33.36293E+02 0.703E+01 0.000E+00 0.332E+00 0.281E+00 0.326E+03 0.354E+01 0.643E-01 0.000E+00 0.210E+01 0.399E-03 0.170E-02 0.228E-03 0.333E-03 0.259E-04 0.504E-04 0.204E+01 0.291E-01 0.100E-11 .21190E-01 0.794E-01 0.114E-01
BIGSUB   5        0   33.58984E+02 0.703E+01 0.000E+00 0.331E+00 0.253E+00 0.240E+03 0.319E+01 0.811E-03 0.000E+00 0.294E+01 0.502E-05 0.259E-05 0.378E-06 0.514E-04 0.778E-05 0.112E-05 0.294E+01 0.298E-01 0.100E-11 .00000E+00 0.000E+00 0.000E+00
BIGSUB   1        0   34.76460E+02 0.000E+00 0.000E+00 0.574E+00 0.202E+00 0.202E+03 0.134E+01 0.234E-01 0.189E-01 0.235E+01 0.726E-04 0.175E-03 0.223E-04 0.694E-04 0.694E-05 0.463E-05 0.230E+01 0.352E-01 0.969E-03 .00000E+00 0.000E+00 0.000E+00
BIGSUB   2        0   34.85095E+02 0.000E+00 0.000E+00 0.573E+00 0.223E+00 0.203E+03 0.158E+01 0.221E-02 0.000E+00 0.218E+01 0.339E-06 0.172E-06 0.256E-07 0.765E-05 0.954E-06 0.727E-07 0.217E+01 0.330E-01 0.100E-11 .00000E+00 0.000E+00 0.000E+00
BIGSUB   3        0   34.34257E+02 0.000E+00 0.000E+00 0.566E+00 0.268E+00 0.260E+03 0.963E+00 0.382E-01 0.000E+00 0.207E+01 0.920E-04 0.249E-03 0.362E-04 0.161E-03 0.101E-04 0.817E-05 0.203E+01 0.278E-01 0.100E-11 .00000E+00 0.000E+00 0.000E+00
BIGSUB   4        0   34.36293E+02 0.000E+00 0.000E+00 0.567E+00 0.283E+00 0.325E+03 0.668E+00 0.129E-01 0.000E+00 0.179E+01 0.150E-04 0.929E-04 0.138E-04 0.626E-04 0.408E-05 0.159E-05 0.177E+01 0.258E-01 0.100E-11 .00000E+00 0.000E+00 0.000E+00
BIGSUB   5        0   34.58984E+02 0.000E+00 0.000E+00 0.563E+00 0.234E+00 0.238E+03 0.126E+01 0.406E-02 0.000E+00 0.251E+01 0.132E-05 0.679E-06 0.995E-07 0.130E-04 0.198E-05 0.295E-06 0.251E+01 0.254E-01 0.100E-11 .00000E+00 0.000E+00 0.000E+00
BIGSUB   1        0   35.76460E+02 0.000E+00 0.000E+00 0.570E+00 0.199E+00 0.202E+03 0.434E+00 0.816E-02 0.385E-01 0.206E+01 0.560E-05 0.169E-04 0.214E-05 0.230E-04 0.254E-05 0.501E-06 0.201E+01 0.320E-01 0.214E-02 .00000E+00 0.000E+00 0.000E+00
BIGSUB   2        0   35.85095E+02 0.764E+01 0.000E+00 0.123E-01 0.123E-01 0.205E+03 0.323E+01 0.607E-06 0.000E+00 0.219E+01 0.267E-07 0.141E-07 0.263E-08 0.590E-06 0.743E-07 0.695E-08 0.219E+01 0.323E-01 0.100E-11 .00000E+00 0.000E+00 0.000E+00
BIGSUB   3        0   35.34257E+02 0.734E+01 0.000E+00 0.128E-01 0.128E-01 0.261E+03 0.261E+01 0.824E-01 0.000E+00 0.221E+01 0.145E-02 0.273E-02 0.348E-03 0.387E-03 0.266E-04 0.110E-03 0.213E+01 0.277E-01 0.100E-11 .27765E-01 0.155E+00 0.104E-01
BIGSUB   4        0   35.36293E+02 0.734E+01 0.000E+00 0.129E-01 0.128E-01 0.327E+03 0.280E+01 0.673E-01 0.000E+00 0.192E+01 0.733E-03 0.337E-02 0.433E-03 0.329E-03 0.246E-04 0.819E-04 0.185E+01 0.256E-01 0.100E-11 .17762E-01 0.234E+00 0.103E-01
BIGSUB   5        0   35.58984E+02 0.734E+01 0.000E+00 0.131E-01 0.131E-01 0.240E+03 0.242E+01 0.365E-06 0.000E+00 0.263E+01 0.346E-06 0.179E-06 0.265E-07 0.335E-05 0.511E-06 0.782E-07 0.263E+01 0.253E-01 0.100E-11 .00000E+00 0.000E+00 0.000E+00
BIGSUB   1        0   36.76460E+02 0.000E+00 0.000E+00 0.126E+01 0.441E+00 0.201E+03 0.163E+00 0.340E-02 0.567E-01 0.182E+01 0.133E-05 0.524E-05 0.658E-06 0.953E-05 0.108E-05 0.148E-06 0.176E+01 0.290E-01 0.337E-02 .00000E+00 0.000E+00 0.000E+00
BIGSUB   2        0   36.85095E+02 0.482E+01 0.000E+00 0.876E+00 0.440E+00 0.204E+03 0.274E+01 0.135E-05 0.139E-01 0.214E+01 0.210E-08 0.172E-08 0.822E-09 0.463E-07 0.632E-08 0.178E-08 0.213E+01 0.310E-01 0.772E-03 .00000E+00 0.000E+00 0.000E+00
BIGSUB   3        0   36.34257E+02 0.281E+01 0.000E+00 0.868E+00 0.520E+00 0.261E+03 0.176E+01 0.341E-01 0.000E+00 0.202E+01 0.311E-03 0.693E-03 0.904E-04 0.210E-03 0.151E-04 0.231E-04 0.199E+01 0.256E-01 0.100E-11 .15623E+00 0.214E-01 0.588E-02
BIGSUB   4        0   36.36293E+02 0.281E+01 0.000E+00 0.870E+00 0.570E+00 0.326E+03 0.162E+01 0.141E-01 0.000E+00 0.176E+01 0.854E-04 0.550E-03 0.729E-04 0.139E-03 0.112E-04 0.902E-05 0.174E+01 0.239E-01 0.100E-11 .57595E-01 0.199E-01 0.525E-02
BIGSUB   5        0   36.58984E+02 0.281E+01 0.000E+00 0.866E+00 0.493E+00 0.239E+03 0.175E+01 0.454E-05 0.000E+00 0.245E+01 0.911E-07 0.474E-07 0.731E-08 0.871E-06 0.133E-06 0.213E-07 0.245E+01 0.231E-01 0.100E-11 .00000E+00 0.000E+00 0.000E+00
BIGSUB   1        0   37.76460E+02 0.000E+00 0.000E+00 0.130E+01 0.454E+00 0.200E+03 0.659E-01 0.147E-02 0.736E-01 0.161E+01 0.503E-06 0.240E-05 0.300E-06 0.412E-05 0.473E-06 0.584E-07 0.154E+01 0.264E-01 0.462E-02 .00000E+00 0.000E+00 0.000E+00
BIGSUB   2        0   37.85095E+02 0.000E+00 0.000E+00 0.130E+01 0.489E+00 0.203E+03 0.820E+00 0.165E-05 0.293E-01 0.190E+01 0.165E-09 0.751E-09 0.747E-09 0.416E-08 0.110E-08 0.149E-08 0.187E+01 0.283E-01 0.166E-02 .00000E+00 0.000E+00 0.000E+00
BIGSUB   3        0   37.34257E+02 0.000E+00 0.000E+00 0.128E+01 0.574E+00 0.259E+03 0.555E+00 0.218E-01 0.000E+00 0.172E+01 0.346E-04 0.140E-03 0.201E-04 0.102E-03 0.652E-05 0.315E-05 0.170E+01 0.223E-01 0.100E-11 .00000E+00 0.000E+00 0.000E+00
BIGSUB   4        0   37.36293E+02 0.000E+00 0.000E+00 0.129E+01 0.581E+00 0.325E+03 0.301E+00 0.797E-02 0.000E+00 0.153E+01 0.517E-05 0.556E-04 0.811E-05 0.427E-04 0.280E-05 0.364E-06 0.152E+01 0.212E-01 0.100E-11 .00000E+00 0.000E+00 0.000E+00
BIGSUB   5        0   37.58984E+02 0.000E+00 0.000E+00 0.128E+01 0.484E+00 0.237E+03 0.701E+00 0.715E-04 0.000E+00 0.207E+01 0.240E-07 0.128E-07 0.226E-08 0.228E-06 0.352E-07 0.627E-08 0.207E+01 0.196E-01 0.100E-11 .00000E+00 0.000E+00 0.000E+00
BIGSUB   1        0   38.76460E+02 0.000E+00 0.000E+00 0.807E+00 0.281E+00 0.200E+03 0.280E-01 0.646E-03 0.892E-01 0.144E+01 0.206E-06 0.115E-05 0.144E-06 0.182E-05 0.212E-06 0.243E-07 0.135E+01 0.241E-01 0.587E-02 .00000E+00 0.000E+00 0.000E+00
BIGSUB   2        0   38.85095E+02 0.181E+01 0.000E+00 0.388E+00 0.248E+00 0.203E+03 0.636E+00 0.743E-06 0.439E-01 0.172E+01 0.136E-10 0.747E-09 0.747E-09 0.935E-09 0.747E-09 0.149E-08 0.168E+01 0.260E-01 0.259E-02 .00000E+00 0.000E+00 0.000E+00
BIGSUB   3        0   38.34257E+02 0.201E+00 0.000E+00 0.383E+00 0.259E+00 0.259E+03 0.208E+00 0.161E-01 0.000E+00 0.145E+01 0.128E-04 0.818E-04 0.122E-04 0.770E-04 0.479E-05 0.140E-05 0.143E+01 0.192E-01 0.100E-11 .00000E+00 0.000E+00 0.000E+00
BIGSUB   4        0   38.36293E+02 0.201E+00 0.000E+00 0.384E+00 0.273E+00 0.325E+03 0.651E-01 0.516E-02 0.000E+00 0.133E+01 0.234E-05 0.360E-04 0.540E-05 0.335E-04 0.214E-05 0.785E-07 0.132E+01 0.188E-01 0.100E-11 .00000E+00 0.000E+00 0.000E+00
BIGSUB   5        0   38.58984E+02 0.201E+00 0.000E+00 0.382E+00 0.248E+00 0.237E+03 0.292E+00 0.190E-04 0.000E+00 0.172E+01 0.631E-08 0.371E-08 0.933E-09 0.601E-07 0.956E-08 0.233E-08 0.172E+01 0.163E-01 0.100E-11 .00000E+00 0.000E+00 0.000E+00
BIGSUB   1        0   39.76460E+02 0.000E+00 0.000E+00 0.533E+00 0.186E+00 0.200E+03 0.122E-01 0.289E-03 0.104E+00 0.130E+01 0.862E-07 0.559E-06 0.696E-07 0.815E-06 0.961E-07 0.104E-07 0.119E+01 0.221E-01 0.712E-02 .00000E+00 0.000E+00 0.000E+00
BIGSUB   2        0   39.85095E+02 0.000E+00 0.000E+00 0.533E+00 0.206E+00 0.203E+03 0.199E+00 0.743E-06 0.574E-01 0.153E+01 0.164E-11 0.747E-09 0.747E-09 0.747E-09 0.747E-09 0.149E-08 0.147E+01 0.236E-01 0.352E-02 .00000E+00 0.000E+00 0.000E+00
BIGSUB   3        0   39.34257E+02 0.000E+00 0.000E+00 0.526E+00 0.239E+00 0.259E+03 0.887E-01 0.138E-01 0.000E+00 0.122E+01 0.926E-05 0.640E-04 0.963E-05 0.621E-04 0.385E-05 0.105E-05 0.120E+01 0.166E-01 0.100E-11 .00000E+00 0.000E+00 0.000E+00
BIGSUB   4        0   39.36293E+02 0.000E+00 0.000E+00 0.527E+00 0.244E+00 0.325E+03 0.170E-01 0.548E-02 0.000E+00 0.116E+01 0.191E-05 0.301E-04 0.453E-05 0.283E-04 0.181E-05 0.575E-07 0.116E+01 0.168E-01 0.100E-11 .00000E+00 0.000E+00 0.000E+00
BIGSUB   5        0   39.58984E+02 0.000E+00 0.000E+00 0.523E+00 0.204E+00 0.236E+03 0.125E+00 0.534E-05 0.000E+00 0.142E+01 0.166E-08 0.131E-08 0.612E-09 0.161E-07 0.285E-08 0.137E-08 0.142E+01 0.135E-01 0.100E-11 .00000E+00 0.000E+00 0.000E+00
BIGSUB   1        0   40.76460E+02 0.000E+00 0.000E+00 0.108E+01 0.376E+00 0.199E+03 0.540E-02 0.132E-03 0.117E+00 0.118E+01 0.368E-07 0.272E-06 0.339E-07 0.371E-06 0.444E-07 0.462E-08 0.106E+01 0.204E-01 0.834E-02 .00000E+00 0.000E+00 0.000E+00
BIGSUB   2        0   40.85095E+02 0.000E+00 0.000E+00 0.108E+01 0.411E+00 0.202E+03 0.719E-01 0.743E-06 0.700E-01 0.136E+01 0.725E-12 0.747E-09 0.747E-09 0.747E-09 0.747E-09 0.149E-08 0.129E+01 0.216E-01 0.445E-02 .00000E+00 0.000E+00 0.000E+00
BIGSUB   3        0   40.34257E+02 0.000E+00 0.000E+00 0.107E+01 0.481E+00 0.258E+03 0.378E-01 0.112E-01 0.000E+00 0.102E+01 0.745E-05 0.519E-04 0.782E-05 0.506E-04 0.313E-05 0.847E-06 0.101E+01 0.143E-01 0.100E-11 .00000E+00 0.000E+00 0.000E+00
BIGSUB   4        0   40.36293E+02 0.000E+00 0.000E+00 0.107E+01 0.488E+00 0.324E+03 0.421E-02 0.464E-02 0.000E+00 0.102E+01 0.161E-05 0.255E-04 0.383E-05 0.239E-04 0.153E-05 0.486E-07 0.101E+01 0.150E-01 0.100E-11 .00000E+00 0.000E+00 0.000E+00
BIGSUB   5        0   40.58984E+02 0.000E+00 0.000E+00 0.107E+01 0.409E+00 0.236E+03 0.536E-01 0.174E-05 0.000E+00 0.117E+01 0.438E-09 0.683E-09 0.612E-09 0.458E-08 0.109E-08 0.122E-08 0.117E+01 0.112E-01 0.100E-11 .00000E+00 0.000E+00 0.000E+00
BIGSUB   1        0   41.76460E+02 0.000E+00 0.000E+00 0.981E+00 0.341E+00 0.199E+03 0.239E-02 0.608E-04 0.129E+00 0.108E+01 0.160E-07 0.133E-06 0.166E-07 0.172E-06 0.208E-07 0.220E-08 0.950E+00 0.189E-01 0.953E-02 .00000E+00 0.000E+00 0.000E+00
BIGSUB   2        0   41.85095E+02 0.000E+00 0.000E+00 0.980E+00 0.376E+00 0.202E+03 0.286E-01 0.743E-06 0.815E-01 0.123E+01 0.725E-12 0.747E-09 0.747E-09 0.747E-09 0.747E-09 0.149E-08 0.114E+01 0.198E-01 0.536E-02 .00000E+00 0.000E+00 0.000E+00
BIGSUB   3        0   41.34257E+02 0.000E+00 0.000E+00 0.970E+00 0.436E+00 0.258E+03 0.158E-01 0.916E-02 0.000E+00 0.860E+00 0.606E-05 0.423E-04 0.637E-05 0.412E-04 0.255E-05 0.690E-06 0.851E+00 0.125E-01 0.100E-11 .00000E+00 0.000E+00 0.000E+00
BIGSUB   4        0   41.36293E+02 0.000E+00 0.000E+00 0.972E+00 0.446E+00 0.324E+03 0.814E-03 0.393E-02 0.000E+00 0.895E+00 0.137E-05 0.216E-04 0.325E-05 0.203E-04 0.130E-05 0.414E-07 0.892E+00 0.134E-01 0.100E-11 .00000E+00 0.000E+00 0.000E+00
BIGSUB   5        0   41.58984E+02 0.000E+00 0.000E+00 0.967E+00 0.377E+00 0.236E+03 0.228E-01 0.795E-06 0.000E+00 0.969E+00 0.116E-09 0.612E-09 0.612E-09 0.154E-08 0.624E-09 0.122E-08 0.969E+00 0.922E-02 0.100E-11 .00000E+00 0.000E+00 0.000E+00
BIGSUB   1        0   42.76460E+02 0.000E+00 0.000E+00 0.930E+00 0.322E+00 0.199E+03 0.106E-02 0.285E-04 0.140E+00 0.997E+00 0.707E-08 0.650E-07 0.817E-08 0.804E-07 0.985E-08 0.138E-08 0.857E+00 0.176E-01 0.107E-01 .00000E+00 0.000E+00 0.000E+00
BIGSUB   2        0   42.85095E+02 0.000E+00 0.000E+00 0.929E+00 0.356E+00 0.201E+03 0.118E-01 0.743E-06 0.922E-01 0.111E+01 0.725E-12 0.747E-09 0.747E-09 0.747E-09 0.747E-09 0.149E-08 0.102E+01 0.182E-01 0.624E-02 .00000E+00 0.000E+00 0.000E+00
BIGSUB   3        0   42.34257E+02 0.000E+00 0.000E+00 0.919E+00 0.408E+00 0.257E+03 0.638E-02 0.747E-02 0.000E+00 0.727E+00 0.494E-05 0.345E-04 0.519E-05 0.336E-04 0.208E-05 0.563E-06 0.719E+00 0.109E-01 0.100E-11 .00000E+00 0.000E+00 0.000E+00
BIGSUB   4        0   42.36293E+02 0.000E+00 0.000E+00 0.921E+00 0.415E+00 0.324E+03 0.149E-03 0.333E-02 0.000E+00 0.790E+00 0.116E-05 0.183E-04 0.275E-05 0.172E-04 0.110E-05 0.353E-07 0.786E+00 0.121E-01 0.100E-11 .00000E+00 0.000E+00 0.000E+00
BIGSUB   5        0   42.58984E+02 0.000E+00 0.000E+00 0.916E+00 0.354E+00 0.235E+03 0.899E-02 0.609E-06 0.000E+00 0.801E+00 0.307E-10 0.612E-09 0.612E-09 0.744E-09 0.612E-09 0.122E-08 0.801E+00 0.761E-02 0.100E-11 .00000E+00 0.000E+00 0.000E+00
BIGSUB   1        0   43.76460E+02 0.000E+00 0.000E+00 0.912E+00 0.314E+00 0.198E+03 0.473E-03 0.135E-04 0.151E+00 0.928E+00 0.318E-08 0.319E-07 0.419E-08 0.381E-07 0.475E-08 0.121E-08 0.778E+00 0.165E-01 0.118E-01 .00000E+00 0.000E+00 0.000E+00
BIGSUB   2        0   43.85095E+02 0.000E+00 0.000E+00 0.911E+00 0.348E+00 0.201E+03 0.499E-02 0.743E-06 0.102E+00 0.101E+01 0.725E-12 0.747E-09 0.747E-09 0.747E-09 0.747E-09 0.149E-08 0.911E+00 0.169E-01 0.710E-02 .00000E+00 0.000E+00 0.000E+00
BIGSUB   3        0   43.34257E+02 0.000E+00 0.000E+00 0.900E+00 0.394E+00 0.257E+03 0.223E-02 0.609E-02 0.000E+00 0.616E+00 0.403E-05 0.281E-04 0.423E-05 0.274E-04 0.170E-05 0.459E-06 0.610E+00 0.958E-02 0.100E-11 .00000E+00 0.000E+00 0.000E+00
BIGSUB   4        0   43.36293E+02 0.000E+00 0.000E+00 0.902E+00 0.398E+00 0.323E+03 0.236E-04 0.282E-02 0.000E+00 0.699E+00 0.979E-06 0.155E-04 0.233E-05 0.145E-04 0.929E-06 0.302E-07 0.696E+00 0.109E-01 0.100E-11 .00000E+00 0.000E+00 0.000E+00
BIGSUB   5        0   43.58984E+02 0.000E+00 0.000E+00 0.897E+00 0.343E+00 0.235E+03 0.306E-02 0.609E-06 0.000E+00 0.663E+00 0.837E-11 0.612E-09 0.612E-09 0.612E-09 0.612E-09 0.122E-08 0.663E+00 0.630E-02 0.100E-11 .00000E+00 0.000E+00 0.000E+00
BIGSUB   1        0   44.76460E+02 0.000E+00 0.000E+00 0.905E+00 0.311E+00 0.198E+03 0.210E-03 0.650E-05 0.160E+00 0.870E+00 0.146E-08 0.157E-07 0.223E-08 0.182E-07 0.236E-08 0.121E-08 0.710E+00 0.155E-01 0.129E-01 .00000E+00 0.000E+00 0.000E+00
BIGSUB   2        0   44.85095E+02 0.000E+00 0.000E+00 0.904E+00 0.345E+00 0.201E+03 0.182E-02 0.743E-06 0.111E+00 0.932E+00 0.725E-12 0.747E-09 0.747E-09 0.747E-09 0.747E-09 0.149E-08 0.821E+00 0.157E-01 0.792E-02 .00000E+00 0.000E+00 0.000E+00
BIGSUB   3        0   44.34257E+02 0.000E+00 0.000E+00 0.894E+00 0.386E+00 0.257E+03 0.985E-03 0.496E-02 0.000E+00 0.525E+00 0.328E-05 0.229E-04 0.345E-05 0.223E-04 0.138E-05 0.374E-06 0.520E+00 0.847E-02 0.100E-11 .00000E+00 0.000E+00 0.000E+00
BIGSUB   4        0   44.36293E+02 0.000E+00 0.000E+00 0.896E+00 0.389E+00 0.323E+03 0.439E-06 0.239E-02 0.000E+00 0.621E+00 0.829E-06 0.131E-04 0.197E-05 0.123E-04 0.787E-06 0.258E-07 0.618E+00 0.994E-02 0.100E-11 .00000E+00 0.000E+00 0.000E+00
BIGSUB   5        0   44.58984E+02 0.000E+00 0.000E+00 0.890E+00 0.337E+00 0.234E+03 0.134E-02 0.609E-06 0.000E+00 0.550E+00 0.248E-11 0.612E-09 0.612E-09 0.612E-09 0.612E-09 0.122E-08 0.550E+00 0.522E-02 0.100E-11 .00000E+00 0.000E+00 0.000E+00
BIGSUB   1        0   45.76460E+02 0.000E+00 0.000E+00 0.130E+01 0.448E+00 0.198E+03 0.928E-04 0.318E-05 0.168E+00 0.821E+00 0.675E-09 0.790E-08 0.127E-08 0.880E-08 0.133E-08 0.121E-08 0.653E+00 0.146E-01 0.139E-01 .00000E+00 0.000E+00 0.000E+00
BIGSUB   2        0   45.85095E+02 0.000E+00 0.000E+00 0.130E+01 0.502E+00 0.200E+03 0.798E-03 0.743E-06 0.119E+00 0.863E+00 0.725E-12 0.747E-09 0.747E-09 0.747E-09 0.747E-09 0.149E-08 0.744E+00 0.146E-01 0.871E-02 .00000E+00 0.000E+00 0.000E+00
BIGSUB   3        0   45.34257E+02 0.000E+00 0.000E+00 0.129E+01 0.562E+00 0.256E+03 0.436E-03 0.405E-02 0.537E-04 0.450E+00 0.268E-05 0.187E-04 0.281E-05 0.182E-04 0.113E-05 0.306E-06 0.446E+00 0.754E-02 0.241E-05 .00000E+00 0.000E+00 0.000E+00
BIGSUB   4        0   45.36293E+02 0.000E+00 0.000E+00 0.129E+01 0.569E+00 0.322E+03 0.000E+00 0.202E-02 0.000E+00 0.553E+00 0.702E-06 0.111E-04 0.167E-05 0.104E-04 0.667E-06 0.221E-07 0.551E+00 0.905E-02 0.100E-11 .00000E+00 0.000E+00 0.000E+00
BIGSUB   5        0   45.58984E+02 0.000E+00 0.000E+00 0.128E+01 0.498E+00 0.234E+03 0.592E-03 0.609E-06 0.000E+00 0.458E+00 0.929E-12 0.612E-09 0.612E-09 0.612E-09 0.612E-09 0.122E-08 0.458E+00 0.435E-02 0.100E-11 .00000E+00 0.000E+00 0.000E+00
BIGSUB   1        0   46.76460E+02 0.000E+00 0.000E+00 0.136E+01 0.467E+00 0.197E+03 0.407E-04 0.171E-05 0.176E+00 0.779E+00 0.317E-09 0.406E-08 0.793E-09 0.431E-08 0.825E-09 0.121E-08 0.603E+00 0.137E-01 0.148E-01 .00000E+00 0.000E+00 0.000E+00
BIGSUB   2        0   46.85095E+02 0.000E+00 0.000E+00 0.136E+01 0.527E+00 0.200E+03 0.357E-03 0.743E-06 0.127E+00 0.806E+00 0.725E-12 0.747E-09 0.747E-09 0.747E-09 0.747E-09 0.149E-08 0.679E+00 0.137E-01 0.946E-02 .00000E+00 0.000E+00 0.000E+00
BIGSUB   3        0   46.34257E+02 0.000E+00 0.000E+00 0.135E+01 0.583E+00 0.255E+03 0.192E-03 0.330E-02 0.728E-04 0.387E+00 0.218E-05 0.152E-04 0.229E-05 0.148E-04 0.920E-06 0.249E-06 0.384E+00 0.675E-02 0.327E-05 .00000E+00 0.000E+00 0.000E+00
BIGSUB   4        0   46.36293E+02 0.000E+00 0.000E+00 0.135E+01 0.587E+00 0.322E+03 0.000E+00 0.171E-02 0.000E+00 0.495E+00 0.595E-06 0.940E-05 0.141E-05 0.883E-05 0.565E-06 0.190E-07 0.493E+00 0.828E-02 0.100E-11 .00000E+00 0.000E+00 0.000E+00
BIGSUB   5        0   46.58984E+02 0.000E+00 0.000E+00 0.134E+01 0.518E+00 0.233E+03 0.262E-03 0.609E-06 0.000E+00 0.383E+00 0.521E-12 0.612E-09 0.612E-09 0.612E-09 0.612E-09 0.122E-08 0.383E+00 0.363E-02 0.100E-11 .00000E+00 0.000E+00 0.000E+00
BIGSUB   1        0   47.76460E+02 0.000E+00 0.000E+00 0.594E+00 0.203E+00 0.197E+03 0.178E-04 0.101E-05 0.183E+00 0.742E+00 0.150E-09 0.217E-08 0.606E-09 0.227E-08 0.606E-09 0.121E-08 0.559E+00 0.130E-01 0.157E-01 .00000E+00 0.000E+00 0.000E+00
BIGSUB   2        0   47.85095E+02 0.000E+00 0.000E+00 0.593E+00 0.229E+00 0.200E+03 0.159E-03 0.743E-06 0.134E+00 0.757E+00 0.725E-12 0.747E-09 0.747E-09 0.747E-09 0.747E-09 0.149E-08 0.623E+00 0.129E-01 0.102E-01 .00000E+00 0.000E+00 0.000E+00
BIGSUB   3        0   47.34257E+02 0.000E+00 0.000E+00 0.586E+00 0.251E+00 0.255E+03 0.855E-04 0.269E-02 0.154E-03 0.335E+00 0.178E-05 0.124E-04 0.187E-05 0.121E-04 0.750E-06 0.204E-06 0.332E+00 0.608E-02 0.690E-05 .00000E+00 0.000E+00 0.000E+00
BIGSUB   4        0   47.36293E+02 0.000E+00 0.000E+00 0.587E+00 0.250E+00 0.321E+03 0.000E+00 0.145E-02 0.000E+00 0.444E+00 0.504E-06 0.796E-05 0.120E-05 0.748E-05 0.479E-06 0.164E-07 0.443E+00 0.760E-02 0.100E-11 .00000E+00 0.000E+00 0.000E+00
BIGSUB   5        0   47.58984E+02 0.000E+00 0.000E+00 0.583E+00 0.223E+00 0.233E+03 0.116E-03 0.609E-06 0.000E+00 0.321E+00 0.500E-12 0.612E-09 0.612E-09 0.612E-09 0.612E-09 0.122E-08 0.321E+00 0.304E-02 0.100E-11 .00000E+00 0.000E+00 0.000E+00
BIGSUB   1        0   48.76460E+02 0.000E+00 0.000E+00 0.116E+01 0.395E+00 0.197E+03 0.777E-05 0.666E-06 0.189E+00 0.710E+00 0.720E-10 0.124E-08 0.606E-09 0.128E-08 0.606E-09 0.121E-08 0.521E+00 0.123E-01 0.165E-01 .00000E+00 0.000E+00 0.000E+00
BIGSUB   2        0   48.85095E+02 0.000E+00 0.000E+00 0.116E+01 0.446E+00 0.199E+03 0.705E-04 0.743E-06 0.140E+00 0.715E+00 0.725E-12 0.747E-09 0.747E-09 0.747E-09 0.747E-09 0.149E-08 0.575E+00 0.121E-01 0.108E-01 .00000E+00 0.000E+00 0.000E+00
BIGSUB   3        0   48.34257E+02 0.000E+00 0.000E+00 0.114E+01 0.487E+00 0.255E+03 0.376E-04 0.219E-02 0.229E-03 0.292E+00 0.145E-05 0.101E-04 0.152E-05 0.985E-05 0.611E-06 0.166E-06 0.290E+00 0.550E-02 0.103E-04 .00000E+00 0.000E+00 0.000E+00
BIGSUB   4        0   48.36293E+02 0.000E+00 0.000E+00 0.115E+01 0.486E+00 0.321E+03 0.000E+00 0.123E-02 0.000E+00 0.400E+00 0.427E-06 0.674E-05 0.101E-05 0.633E-05 0.405E-06 0.141E-07 0.399E+00 0.701E-02 0.100E-11 .00000E+00 0.000E+00 0.000E+00
BIGSUB   5        0   48.58984E+02 0.000E+00 0.000E+00 0.114E+01 0.434E+00 0.233E+03 0.513E-04 0.609E-06 0.000E+00 0.271E+00 0.500E-12 0.612E-09 0.612E-09 0.612E-09 0.612E-09 0.122E-08 0.271E+00 0.256E-02 0.100E-11 .00000E+00 0.000E+00 0.000E+00
BIGSUB   1        0   49.76460E+02 0.000E+00 0.000E+00 0.139E+01 0.474E+00 0.196E+03 0.366E-05 0.603E-06 0.195E+00 0.682E+00 0.348E-10 0.777E-09 0.606E-09 0.802E-09 0.606E-09 0.121E-08 0.488E+00 0.117E-01 0.173E-01 .00000E+00 0.000E+00 0.000E+00
BIGSUB   2        0   49.85095E+02 0.000E+00 0.000E+00 0.139E+01 0.533E+00 0.199E+03 0.310E-04 0.743E-06 0.145E+00 0.679E+00 0.725E-12 0.747E-09 0.747E-09 0.747E-09 0.747E-09 0.149E-08 0.533E+00 0.115E-01 0.115E-01 .00000E+00 0.000E+00 0.000E+00
BIGSUB   3        0   49.34257E+02 0.000E+00 0.000E+00 0.138E+01 0.574E+00 0.254E+03 0.167E-04 0.179E-02 0.299E-03 0.256E+00 0.118E-05 0.825E-05 0.124E-05 0.803E-05 0.499E-06 0.136E-06 0.254E+00 0.501E-02 0.134E-04 .00000E+00 0.000E+00 0.000E+00
BIGSUB   4        0   49.36293E+02 0.000E+00 0.000E+00 0.138E+01 0.567E+00 0.320E+03 0.000E+00 0.104E-02 0.000E+00 0.362E+00 0.361E-06 0.571E-05 0.860E-06 0.536E-05 0.343E-06 0.122E-07 0.361E+00 0.648E-02 0.100E-11 .00000E+00 0.000E+00 0.000E+00
BIGSUB   5        0   49.58984E+02 0.000E+00 0.000E+00 0.137E+01 0.510E+00 0.232E+03 0.226E-04 0.609E-06 0.000E+00 0.229E+00 0.500E-12 0.612E-09 0.612E-09 0.612E-09 0.612E-09 0.122E-08 0.229E+00 0.217E-02 0.100E-11 .00000E+00 0.000E+00 0.000E+00
BIGSUB   1        0   50.76460E+02 0.000E+00 0.000E+00 0.107E+01 0.367E+00 0.196E+03 0.000E+00 0.603E-06 0.200E+00 0.657E+00 0.171E-10 0.606E-09 0.606E-09 0.606E-09 0.606E-09 0.121E-08 0.458E+00 0.111E-01 0.181E-01 .00000E+00 0.000E+00 0.000E+00
BIGSUB   2        0   50.85095E+02 0.000E+00 0.000E+00 0.107E+01 0.417E+00 0.198E+03 0.138E-04 0.743E-06 0.150E+00 0.647E+00 0.725E-12 0.747E-09 0.747E-09 0.747E-09 0.747E-09 0.149E-08 0.497E+00 0.109E-01 0.121E-01 .00000E+00 0.000E+00 0.000E+00
BIGSUB   3        0   50.34257E+02 0.000E+00 0.000E+00 0.106E+01 0.451E+00 0.254E+03 0.645E-05 0.146E-02 0.363E-03 0.226E+00 0.964E-06 0.672E-05 0.101E-05 0.655E-05 0.407E-06 0.111E-06 0.224E+00 0.459E-02 0.163E-04 .00000E+00 0.000E+00 0.000E+00
BIGSUB   4        0   50.36293E+02 0.000E+00 0.000E+00 0.106E+01 0.453E+00 0.320E+03 0.000E+00 0.881E-03 0.000E+00 0.329E+00 0.306E-06 0.484E-05 0.728E-06 0.454E-05 0.291E-06 0.106E-07 0.328E+00 0.601E-02 0.100E-11 .00000E+00 0.000E+00 0.000E+00
BIGSUB   5        0   50.58984E+02 0.000E+00 0.000E+00 0.106E+01 0.409E+00 0.232E+03 0.933E-05 0.609E-06 0.000E+00 0.195E+00 0.500E-12 0.612E-09 0.612E-09 0.612E-09 0.612E-09 0.122E-08 0.195E+00 0.184E-02 0.100E-11 .00000E+00 0.000E+00 0.000E+00
BIGSUB   1        0   51.76460E+02 0.000E+00 0.000E+00 0.198E+01 0.687E+00 0.195E+03 0.000E+00 0.603E-06 0.204E+00 0.635E+00 0.854E-11 0.606E-09 0.606E-09 0.606E-09 0.606E-09 0.121E-08 0.431E+00 0.106E-01 0.187E-01 .00000E+00 0.000E+00 0.000E+00
BIGSUB   2        0   51.85095E+02 0.000E+00 0.000E+00 0.198E+01 0.777E+00 0.197E+03 0.587E-05 0.743E-06 0.155E+00 0.619E+00 0.725E-12 0.747E-09 0.747E-09 0.747E-09 0.747E-09 0.149E-08 0.465E+00 0.103E-01 0.126E-01 .00000E+00 0.000E+00 0.000E+00
BIGSUB   3        0   51.34257E+02 0.000E+00 0.000E+00 0.196E+01 0.831E+00 0.253E+03 0.322E-05 0.119E-02 0.000E+00 0.200E+00 0.786E-06 0.548E-05 0.826E-06 0.534E-05 0.332E-06 0.909E-07 0.199E+00 0.422E-02 0.100E-11 .00000E+00 0.000E+00 0.000E+00
BIGSUB   4        0   51.36293E+02 0.000E+00 0.000E+00 0.196E+01 0.825E+00 0.319E+03 0.000E+00 0.746E-03 0.000E+00 0.300E+00 0.259E-06 0.410E-05 0.617E-06 0.385E-05 0.247E-06 0.928E-08 0.299E+00 0.559E-02 0.100E-11 .00000E+00 0.000E+00 0.000E+00
BIGSUB   5        0   51.58984E+02 0.000E+00 0.000E+00 0.196E+01 0.753E+00 0.231E+03 0.467E-05 0.609E-06 0.000E+00 0.167E+00 0.500E-12 0.612E-09 0.612E-09 0.612E-09 0.612E-09 0.122E-08 0.167E+00 0.158E-02 0.100E-11 .00000E+00 0.000E+00 0.000E+00
BIGSUB   1        0   52.76460E+02 0.000E+00 0.000E+00 0.288E+01 0.101E+01 0.194E+03 0.000E+00 0.603E-06 0.208E+00 0.615E+00 0.441E-11 0.606E-09 0.606E-09 0.606E-09 0.606E-09 0.121E-08 0.407E+00 0.101E-01 0.194E-01 .00000E+00 0.000E+00 0.000E+00
BIGSUB   2        0   52.85095E+02 0.000E+00 0.000E+00 0.288E+01 0.115E+01 0.196E+03 0.000E+00 0.743E-06 0.159E+00 0.595E+00 0.725E-12 0.747E-09 0.747E-09 0.747E-09 0.747E-09 0.149E-08 0.436E+00 0.980E-02 0.131E-01 .00000E+00 0.000E+00 0.000E+00
BIGSUB   3        0   52.34257E+02 0.000E+00 0.000E+00 0.286E+01 0.123E+01 0.252E+03 0.000E+00 0.969E-03 0.000E+00 0.178E+00 0.641E-06 0.447E-05 0.673E-06 0.435E-05 0.270E-06 0.744E-07 0.177E+00 0.390E-02 0.100E-11 .00000E+00 0.000E+00 0.000E+00
BIGSUB   4        0   52.36293E+02 0.000E+00 0.000E+00 0.287E+01 0.124E+01 0.318E+03 0.000E+00 0.632E-03 0.000E+00 0.275E+00 0.219E-06 0.347E-05 0.523E-06 0.326E-05 0.209E-06 0.813E-08 0.274E+00 0.522E-02 0.100E-11 .00000E+00 0.000E+00 0.000E+00
BIGSUB   5        0   52.58984E+02 0.000E+00 0.000E+00 0.286E+01 0.114E+01 0.230E+03 0.000E+00 0.609E-06 0.000E+00 0.144E+00 0.500E-12 0.612E-09 0.612E-09 0.612E-09 0.612E-09 0.122E-08 0.144E+00 0.135E-02 0.100E-11 .00000E+00 0.000E+00 0.000E+00
BIGSUB   1        0   53.76460E+02 0.000E+00 0.000E+00 0.200E+01 0.705E+00 0.193E+03 0.000E+00 0.603E-06 0.211E+00 0.596E+00 0.244E-11 0.606E-09 0.606E-09 0.606E-09 0.606E-09 0.121E-08 0.385E+00 0.963E-02 0.199E-01 .00000E+00 0.000E+00 0.000E+00
BIGSUB   2        0   53.85095E+02 0.000E+00 0.000E+00 0.200E+01 0.813E+00 0.195E+03 0.000E+00 0.743E-06 0.162E+00 0.572E+00 0.725E-12 0.747E-09 0.747E-09 0.747E-09 0.747E-09 0.149E-08 0.410E+00 0.932E-02 0.136E-01 .00000E+00 0.000E+00 0.000E+00
BIGSUB   3        0   53.34257E+02 0.000E+00 0.000E+00 0.199E+01 0.865E+00 0.251E+03 0.000E+00 0.790E-03 0.000E+00 0.160E+00 0.522E-06 0.364E-05 0.549E-06 0.355E-05 0.221E-06 0.609E-07 0.159E+00 0.362E-02 0.100E-11 .00000E+00 0.000E+00 0.000E+00
BIGSUB   4        0   53.36293E+02 0.000E+00 0.000E+00 0.199E+01 0.880E+00 0.317E+03 0.000E+00 0.535E-03 0.000E+00 0.252E+00 0.186E-06 0.294E-05 0.443E-06 0.276E-05 0.177E-06 0.715E-08 0.252E+00 0.488E-02 0.100E-11 .00000E+00 0.000E+00 0.000E+00
BIGSUB   5        0   53.58984E+02 0.000E+00 0.000E+00 0.198E+01 0.814E+00 0.229E+03 0.000E+00 0.609E-06 0.000E+00 0.125E+00 0.500E-12 0.612E-09 0.612E-09 0.612E-09 0.612E-09 0.122E-08 0.125E+00 0.117E-02 0.100E-11 .00000E+00 0.000E+00 0.000E+00
BIGSUB   1        0   54.76460E+02 0.000E+00 0.000E+00 0.200E+01 0.682E+00 0.193E+03 0.000E+00 0.603E-06 0.214E+00 0.579E+00 0.149E-11 0.606E-09 0.606E-09 0.606E-09 0.606E-09 0.121E-08 0.365E+00 0.919E-02 0.204E-01 .00000E+00 0.000E+00 0.000E+00
BIGSUB   2        0   54.85095E+02 0.000E+00 0.000E+00 0.199E+01 0.780E+00 0.195E+03 0.000E+00 0.743E-06 0.165E+00 0.552E+00 0.725E-12 0.747E-09 0.747E-09 0.747E-09 0.747E-09 0.149E-08 0.387E+00 0.888E-02 0.140E-01 .00000E+00 0.000E+00 0.000E+00
BIGSUB   3        0   54.34257E+02 0.000E+00 0.000E+00 0.198E+01 0.804E+00 0.250E+03 0.000E+00 0.644E-03 0.000E+00 0.145E+00 0.426E-06 0.297E-05 0.448E-06 0.289E-05 0.180E-06 0.500E-07 0.144E+00 0.337E-02 0.100E-11 .00000E+00 0.000E+00 0.000E+00
BIGSUB   4        0   54.36293E+02 0.000E+00 0.000E+00 0.198E+01 0.791E+00 0.316E+03 0.000E+00 0.453E-03 0.000E+00 0.232E+00 0.157E-06 0.249E-05 0.375E-06 0.234E-05 0.150E-06 0.633E-08 0.232E+00 0.458E-02 0.100E-11 .00000E+00 0.000E+00 0.000E+00
BIGSUB   5        0   54.58984E+02 0.000E+00 0.000E+00 0.197E+01 0.744E+00 0.228E+03 0.000E+00 0.609E-06 0.000E+00 0.109E+00 0.500E-12 0.612E-09 0.612E-09 0.612E-09 0.612E-09 0.122E-08 0.109E+00 0.102E-02 0.100E-11 .00000E+00 0.000E+00 0.000E+00
BIGSUB   1        0   55.76460E+02 0.301E+01 0.000E+00 0.119E+01 0.555E+00 0.195E+03 0.000E+00 0.341E-02 0.216E+00 0.576E+00 0.112E-04 0.109E-03 0.222E-04 0.472E-03 0.808E-05 0.121E-08 0.357E+00 0.908E-02 0.209E-01 .91963E-03 0.000E+00 0.172E-02
BIGSUB   2        0   55.85095E+02 0.251E+01 0.000E+00 0.119E+01 0.607E+00 0.196E+03 0.000E+00 0.743E-06 0.168E+00 0.540E+00 0.725E-12 0.747E-09 0.747E-09 0.747E-09 0.747E-09 0.149E-08 0.372E+00 0.861E-02 0.144E-01 .00000E+00 0.000E+00 0.000E+00
BIGSUB   3        0   55.34257E+02 0.151E+01 0.000E+00 0.117E+01 0.671E+00 0.251E+03 0.000E+00 0.782E-06 0.000E+00 0.131E+00 0.347E-06 0.242E-05 0.365E-06 0.337E-04 0.204E-06 0.411E-07 0.131E+00 0.315E-02 0.100E-11 .00000E+00 0.000E+00 0.343E-03
BIGSUB   4        0   55.36293E+02 0.151E+01 0.000E+00 0.118E+01 0.729E+00 0.317E+03 0.000E+00 0.822E-06 0.000E+00 0.214E+00 0.133E-06 0.211E-05 0.318E-06 0.385E-04 0.195E-06 0.563E-08 0.214E+00 0.431E-02 0.100E-11 .00000E+00 0.000E+00 0.636E-03
BIGSUB   5        0   55.58984E+02 0.151E+01 0.000E+00 0.117E+01 0.661E+00 0.229E+03 0.000E+00 0.609E-06 0.000E+00 0.957E-01 0.500E-12 0.612E-09 0.612E-09 0.612E-09 0.612E-09 0.122E-08 0.957E-01 0.896E-03 0.100E-11 .00000E+00 0.000E+00 0.000E+00
BIGSUB   1        0   56.76460E+02 0.131E+01 0.000E+00 0.830E+00 0.430E+00 0.196E+03 0.000E+00 0.539E-06 0.218E+00 0.566E+00 0.433E-06 0.419E-05 0.858E-06 0.318E-04 0.338E-06 0.121E-08 0.348E+00 0.882E-02 0.213E-01 .00000E+00 0.000E+00 0.140E-02
BIGSUB   2        0   56.85095E+02 0.894E+01 0.000E+00 0.829E+00 0.475E+00 0.202E+03 0.104E+01 0.743E-06 0.172E+00 0.690E+00 0.725E-12 0.747E-09 0.747E-09 0.747E-09 0.747E-09 0.149E-08 0.517E+00 0.961E-02 0.149E-01 .00000E+00 0.000E+00 0.000E+00
BIGSUB   3        0   56.34257E+02 0.633E+01 0.000E+00 0.822E+00 0.562E+00 0.256E+03 0.000E+00 0.286E-01 0.000E+00 0.241E+00 0.580E-03 0.200E-02 0.254E-03 0.615E-03 0.166E-04 0.541E-04 0.212E+00 0.381E-02 0.100E-11 .12476E-01 0.117E+00 0.256E-02
BIGSUB   4        0   56.36293E+02 0.633E+01 0.000E+00 0.823E+00 0.633E+00 0.322E+03 0.371E-02 0.391E-01 0.000E+00 0.336E+00 0.581E-03 0.272E-02 0.349E-03 0.710E-03 0.187E-04 0.635E-04 0.297E+00 0.512E-02 0.100E-11 .13576E-01 0.185E+00 0.403E-02
BIGSUB   5        0   56.58984E+02 0.633E+01 0.000E+00 0.820E+00 0.555E+00 0.234E+03 0.000E+00 0.609E-06 0.000E+00 0.200E+00 0.500E-12 0.612E-09 0.612E-09 0.612E-09 0.612E-09 0.122E-08 0.200E+00 0.183E-02 0.100E-11 .00000E+00 0.000E+00 0.000E+00
BIGSUB   1        0   57.76460E+02 0.000E+00 0.000E+00 0.114E+00 0.417E-01 0.196E+03 0.000E+00 0.257E-04 0.220E+00 0.549E+00 0.169E-07 0.162E-06 0.339E-07 0.124E-05 0.137E-07 0.121E-08 0.330E+00 0.839E-02 0.217E-01 .00000E+00 0.000E+00 0.000E+00
BIGSUB   2        0   57.85095E+02 0.000E+00 0.000E+00 0.114E+00 0.470E-01 0.202E+03 0.220E+00 0.743E-06 0.176E+00 0.656E+00 0.725E-12 0.747E-09 0.747E-09 0.747E-09 0.747E-09 0.149E-08 0.480E+00 0.912E-02 0.154E-01 .00000E+00 0.000E+00 0.000E+00
BIGSUB   3        0   57.34257E+02 0.000E+00 0.000E+00 0.111E+00 0.559E-01 0.256E+03 0.000E+00 0.545E-02 0.000E+00 0.192E+00 0.414E-04 0.164E-03 0.212E-04 0.861E-04 0.242E-05 0.385E-05 0.186E+00 0.349E-02 0.100E-11 .00000E+00 0.000E+00 0.000E+00
BIGSUB   4        0   57.36293E+02 0.000E+00 0.000E+00 0.111E+00 0.598E-01 0.322E+03 0.664E-03 0.245E-02 0.000E+00 0.272E+00 0.149E-04 0.742E-04 0.968E-05 0.370E-04 0.107E-05 0.162E-05 0.269E+00 0.474E-02 0.100E-11 .00000E+00 0.000E+00 0.000E+00
BIGSUB   5        0   57.58984E+02 0.000E+00 0.000E+00 0.110E+00 0.502E-01 0.234E+03 0.000E+00 0.609E-06 0.000E+00 0.170E+00 0.500E-12 0.612E-09 0.612E-09 0.612E-09 0.612E-09 0.122E-08 0.170E+00 0.155E-02 0.100E-11 .00000E+00 0.000E+00 0.000E+00
BIGSUB   1        0   58.76460E+02 0.000E+00 0.000E+00 0.616E+00 0.221E+00 0.196E+03 0.000E+00 0.153E-05 0.221E+00 0.534E+00 0.668E-09 0.686E-08 0.185E-08 0.497E-07 0.106E-08 0.121E-08 0.313E+00 0.800E-02 0.221E-01 .00000E+00 0.000E+00 0.000E+00
BIGSUB   2        0   58.85095E+02 0.000E+00 0.000E+00 0.615E+00 0.245E+00 0.201E+03 0.538E-01 0.743E-06 0.180E+00 0.624E+00 0.725E-12 0.747E-09 0.747E-09 0.747E-09 0.747E-09 0.149E-08 0.444E+00 0.863E-02 0.158E-01 .00000E+00 0.000E+00 0.000E+00
BIGSUB   3        0   58.34257E+02 0.000E+00 0.000E+00 0.608E+00 0.285E+00 0.255E+03 0.000E+00 0.224E-02 0.000E+00 0.167E+00 0.381E-05 0.273E-04 0.367E-05 0.344E-04 0.101E-05 0.303E-06 0.165E+00 0.321E-02 0.100E-11 .00000E+00 0.000E+00 0.000E+00
BIGSUB   4        0   58.36293E+02 0.000E+00 0.000E+00 0.609E+00 0.294E+00 0.321E+03 0.120E-03 0.923E-03 0.000E+00 0.246E+00 0.781E-06 0.919E-05 0.125E-05 0.129E-04 0.416E-06 0.526E-07 0.245E+00 0.441E-02 0.100E-11 .00000E+00 0.000E+00 0.000E+00
BIGSUB   5        0   58.58984E+02 0.000E+00 0.000E+00 0.605E+00 0.249E+00 0.234E+03 0.000E+00 0.609E-06 0.000E+00 0.145E+00 0.500E-12 0.612E-09 0.612E-09 0.612E-09 0.612E-09 0.122E-08 0.145E+00 0.132E-02 0.100E-11 .00000E+00 0.000E+00 0.000E+00
BIGSUB   1        0   59.76460E+02 0.000E+00 0.000E+00 0.936E+00 0.333E+00 0.195E+03 0.000E+00 0.603E-06 0.222E+00 0.519E+00 0.269E-10 0.790E-09 0.609E-09 0.250E-08 0.606E-09 0.121E-08 0.297E+00 0.763E-02 0.223E-01 .00000E+00 0.000E+00 0.000E+00
BIGSUB   2        0   59.85095E+02 0.000E+00 0.000E+00 0.935E+00 0.373E+00 0.201E+03 0.160E-01 0.743E-06 0.183E+00 0.594E+00 0.725E-12 0.747E-09 0.747E-09 0.747E-09 0.747E-09 0.149E-08 0.412E+00 0.816E-02 0.162E-01 .00000E+00 0.000E+00 0.000E+00
BIGSUB   3        0   59.34257E+02 0.000E+00 0.000E+00 0.925E+00 0.431E+00 0.255E+03 0.000E+00 0.160E-02 0.000E+00 0.148E+00 0.958E-06 0.143E-04 0.195E-05 0.245E-04 0.722E-06 0.411E-07 0.146E+00 0.297E-02 0.100E-11 .00000E+00 0.000E+00 0.000E+00
BIGSUB   4        0   59.36293E+02 0.000E+00 0.000E+00 0.926E+00 0.448E+00 0.321E+03 0.211E-04 0.735E-03 0.000E+00 0.225E+00 0.338E-06 0.639E-05 0.870E-06 0.102E-04 0.332E-06 0.826E-08 0.224E+00 0.411E-02 0.100E-11 .00000E+00 0.000E+00 0.000E+00
BIGSUB   5        0   59.58984E+02 0.000E+00 0.000E+00 0.921E+00 0.381E+00 0.234E+03 0.000E+00 0.609E-06 0.000E+00 0.124E+00 0.500E-12 0.612E-09 0.612E-09 0.612E-09 0.612E-09 0.122E-08 0.124E+00 0.113E-02 0.100E-11 .00000E+00 0.000E+00 0.000E+00
BIGSUB   1        0   60.76460E+02 0.000E+00 0.000E+00 0.145E+01 0.530E+00 0.195E+03 0.000E+00 0.603E-06 0.222E+00 0.505E+00 0.134E-11 0.606E-09 0.606E-09 0.631E-09 0.606E-09 0.121E-08 0.283E+00 0.728E-02 0.226E-01 .00000E+00 0.000E+00 0.000E+00
BIGSUB   2        0   60.85095E+02 0.000E+00 0.000E+00 0.145E+01 0.604E+00 0.200E+03 0.574E-02 0.743E-06 0.185E+00 0.568E+00 0.725E-12 0.747E-09 0.747E-09 0.747E-09 0.747E-09 0.149E-08 0.383E+00 0.773E-02 0.166E-01 .00000E+00 0.000E+00 0.000E+00
BIGSUB   3        0   60.34257E+02 0.000E+00 0.000E+00 0.143E+01 0.695E+00 0.254E+03 0.000E+00 0.128E-02 0.000E+00 0.132E+00 0.618E-06 0.110E-04 0.150E-05 0.196E-04 0.577E-06 0.177E-07 0.131E+00 0.275E-02 0.100E-11 .00000E+00 0.000E+00 0.000E+00
BIGSUB   4        0   60.36293E+02 0.000E+00 0.000E+00 0.144E+01 0.732E+00 0.320E+03 0.340E-05 0.620E-03 0.000E+00 0.206E+00 0.276E-06 0.537E-05 0.731E-06 0.859E-05 0.280E-06 0.612E-08 0.206E+00 0.384E-02 0.100E-11 .00000E+00 0.000E+00 0.000E+00
BIGSUB   5        0   60.58984E+02 0.000E+00 0.000E+00 0.143E+01 0.635E+00 0.233E+03 0.000E+00 0.609E-06 0.000E+00 0.107E+00 0.500E-12 0.612E-09 0.612E-09 0.612E-09 0.612E-09 0.122E-08 0.107E+00 0.973E-03 0.100E-11 .00000E+00 0.000E+00 0.000E+00
BIGSUB   1        0   61.76460E+02 0.000E+00 0.000E+00 0.107E+01 0.389E+00 0.194E+03 0.000E+00 0.603E-06 0.222E+00 0.492E+00 0.646E-12 0.606E-09 0.606E-09 0.606E-09 0.606E-09 0.121E-08 0.269E+00 0.696E-02 0.228E-01 .00000E+00 0.000E+00 0.000E+00
BIGSUB   2        0   61.85095E+02 0.000E+00 0.000E+00 0.107E+01 0.448E+00 0.200E+03 0.212E-02 0.743E-06 0.188E+00 0.545E+00 0.725E-12 0.747E-09 0.747E-09 0.747E-09 0.747E-09 0.149E-08 0.357E+00 0.733E-02 0.169E-01 .00000E+00 0.000E+00 0.000E+00
BIGSUB   3        0   61.34257E+02 0.000E+00 0.000E+00 0.106E+01 0.509E+00 0.254E+03 0.000E+00 0.104E-02 0.000E+00 0.119E+00 0.490E-06 0.888E-05 0.122E-05 0.159E-04 0.469E-06 0.134E-07 0.118E+00 0.256E-02 0.100E-11 .00000E+00 0.000E+00 0.000E+00
BIGSUB   4        0   61.36293E+02 0.000E+00 0.000E+00 0.106E+01 0.533E+00 0.320E+03 0.000E+00 0.525E-03 0.205E-02 0.192E+00 0.234E-06 0.455E-05 0.619E-06 0.728E-05 0.237E-06 0.543E-08 0.189E+00 0.360E-02 0.694E-04 .00000E+00 0.000E+00 0.000E+00
BIGSUB   5        0   61.58984E+02 0.000E+00 0.000E+00 0.105E+01 0.471E+00 0.233E+03 0.000E+00 0.609E-06 0.000E+00 0.929E-01 0.500E-12 0.612E-09 0.612E-09 0.612E-09 0.612E-09 0.122E-08 0.929E-01 0.844E-03 0.100E-11 .00000E+00 0.000E+00 0.000E+00
BIGSUB   1        0   62.76460E+02 0.000E+00 0.000E+00 0.155E+01 0.555E+00 0.194E+03 0.000E+00 0.603E-06 0.222E+00 0.479E+00 0.646E-12 0.606E-09 0.606E-09 0.606E-09 0.606E-09 0.121E-08 0.257E+00 0.665E-02 0.230E-01 .00000E+00 0.000E+00 0.000E+00
BIGSUB   2        0   62.85095E+02 0.000E+00 0.000E+00 0.155E+01 0.640E+00 0.199E+03 0.764E-03 0.743E-06 0.190E+00 0.524E+00 0.725E-12 0.747E-09 0.747E-09 0.747E-09 0.747E-09 0.149E-08 0.334E+00 0.697E-02 0.171E-01 .00000E+00 0.000E+00 0.000E+00
BIGSUB   3        0   62.34257E+02 0.000E+00 0.000E+00 0.153E+01 0.712E+00 0.253E+03 0.000E+00 0.848E-03 0.000E+00 0.108E+00 0.398E-06 0.724E-05 0.992E-06 0.129E-04 0.382E-06 0.111E-07 0.107E+00 0.240E-02 0.100E-11 .00000E+00 0.000E+00 0.000E+00
BIGSUB   4        0   62.36293E+02 0.000E+00 0.000E+00 0.154E+01 0.733E+00 0.319E+03 0.000E+00 0.445E-03 0.000E+00 0.175E+00 0.198E-06 0.385E-05 0.525E-06 0.616E-05 0.201E-06 0.486E-08 0.175E+00 0.339E-02 0.100E-11 .00000E+00 0.000E+00 0.000E+00
BIGSUB   5        0   62.58984E+02 0.000E+00 0.000E+00 0.153E+01 0.658E+00 0.232E+03 0.000E+00 0.609E-06 0.000E+00 0.811E-01 0.500E-12 0.612E-09 0.612E-09 0.612E-09 0.612E-09 0.122E-08 0.811E-01 0.737E-03 0.100E-11 .00000E+00 0.000E+00 0.000E+00
BIGSUB   1        0   63.76460E+02 0.000E+00 0.000E+00 0.180E+01 0.634E+00 0.193E+03 0.000E+00 0.603E-06 0.222E+00 0.467E+00 0.646E-12 0.606E-09 0.606E-09 0.606E-09 0.606E-09 0.121E-08 0.245E+00 0.636E-02 0.231E-01 .00000E+00 0.000E+00 0.000E+00
BIGSUB   2        0   63.85095E+02 0.000E+00 0.000E+00 0.180E+01 0.733E+00 0.199E+03 0.207E-03 0.743E-06 0.191E+00 0.505E+00 0.725E-12 0.747E-09 0.747E-09 0.747E-09 0.747E-09 0.149E-08 0.314E+00 0.663E-02 0.174E-01 .00000E+00 0.000E+00 0.000E+00
BIGSUB   3        0   63.34257E+02 0.000E+00 0.000E+00 0.178E+01 0.796E+00 0.252E+03 0.000E+00 0.691E-03 0.000E+00 0.979E-01 0.324E-06 0.590E-05 0.809E-06 0.106E-04 0.312E-06 0.934E-08 0.973E-01 0.225E-02 0.100E-11 .00000E+00 0.000E+00 0.000E+00
BIGSUB   4        0   63.36293E+02 0.000E+00 0.000E+00 0.178E+01 0.802E+00 0.318E+03 0.000E+00 0.377E-03 0.000E+00 0.162E+00 0.168E-06 0.326E-05 0.444E-06 0.522E-05 0.170E-06 0.439E-08 0.162E+00 0.319E-02 0.100E-11 .00000E+00 0.000E+00 0.000E+00
BIGSUB   5        0   63.58984E+02 0.000E+00 0.000E+00 0.178E+01 0.732E+00 0.231E+03 0.000E+00 0.609E-06 0.000E+00 0.714E-01 0.500E-12 0.612E-09 0.612E-09 0.612E-09 0.612E-09 0.122E-08 0.714E-01 0.647E-03 0.100E-11 .00000E+00 0.000E+00 0.000E+00
BIGSUB   1        0   64.76460E+02 0.000E+00 0.000E+00 0.137E+01 0.491E+00 0.193E+03 0.000E+00 0.603E-06 0.221E+00 0.456E+00 0.646E-12 0.606E-09 0.606E-09 0.606E-09 0.606E-09 0.121E-08 0.234E+00 0.609E-02 0.232E-01 .00000E+00 0.000E+00 0.000E+00
BIGSUB   2        0   64.85095E+02 0.000E+00 0.000E+00 0.137E+01 0.575E+00 0.198E+03 0.000E+00 0.743E-06 0.192E+00 0.488E+00 0.725E-12 0.747E-09 0.747E-09 0.747E-09 0.747E-09 0.149E-08 0.296E+00 0.631E-02 0.176E-01 .00000E+00 0.000E+00 0.000E+00
BIGSUB   3        0   64.34257E+02 0.000E+00 0.000E+00 0.136E+01 0.620E+00 0.252E+03 0.000E+00 0.564E-03 0.000E+00 0.896E-01 0.264E-06 0.481E-05 0.660E-06 0.860E-05 0.254E-06 0.792E-08 0.890E-01 0.211E-02 0.100E-11 .00000E+00 0.000E+00 0.000E+00
BIGSUB   4        0   64.36293E+02 0.000E+00 0.000E+00 0.136E+01 0.636E+00 0.317E+03 0.000E+00 0.319E-03 0.000E+00 0.151E+00 0.142E-06 0.276E-05 0.376E-06 0.442E-05 0.145E-06 0.399E-08 0.151E+00 0.301E-02 0.100E-11 .00000E+00 0.000E+00 0.000E+00
BIGSUB   5        0   64.58984E+02 0.000E+00 0.000E+00 0.135E+01 0.587E+00 0.231E+03 0.000E+00 0.609E-06 0.000E+00 0.632E-01 0.500E-12 0.612E-09 0.612E-09 0.612E-09 0.612E-09 0.122E-08 0.632E-01 0.573E-03 0.100E-11 .00000E+00 0.000E+00 0.000E+00
BIGSUB   1        0   65.76460E+02 0.000E+00 0.000E+00 0.153E+01 0.537E+00 0.192E+03 0.000E+00 0.603E-06 0.220E+00 0.444E+00 0.646E-12 0.606E-09 0.606E-09 0.606E-09 0.606E-09 0.121E-08 0.224E+00 0.583E-02 0.233E-01 .00000E+00 0.000E+00 0.000E+00
BIGSUB   2        0   65.85095E+02 0.000E+00 0.000E+00 0.153E+01 0.626E+00 0.197E+03 0.000E+00 0.743E-06 0.138E+00 0.417E+00 0.725E-12 0.747E-09 0.747E-09 0.747E-09 0.747E-09 0.149E-08 0.279E+00 0.602E-02 0.121E-01 .00000E+00 0.000E+00 0.000E+00
BIGSUB   3        0   65.34257E+02 0.000E+00 0.000E+00 0.151E+01 0.662E+00 0.251E+03 0.000E+00 0.460E-03 0.000E+00 0.823E-01 0.216E-06 0.392E-05 0.538E-06 0.701E-05 0.207E-06 0.677E-08 0.819E-01 0.199E-02 0.100E-11 .00000E+00 0.000E+00 0.000E+00
BIGSUB   4        0   65.36293E+02 0.000E+00 0.000E+00 0.151E+01 0.666E+00 0.317E+03 0.000E+00 0.271E-03 0.000E+00 0.141E+00 0.120E-06 0.234E-05 0.319E-06 0.374E-05 0.123E-06 0.365E-08 0.140E+00 0.285E-02 0.100E-11 .00000E+00 0.000E+00 0.000E+00
BIGSUB   5        0   65.58984E+02 0.000E+00 0.000E+00 0.151E+01 0.621E+00 0.230E+03 0.000E+00 0.609E-06 0.000E+00 0.564E-01 0.500E-12 0.612E-09 0.612E-09 0.612E-09 0.612E-09 0.122E-08 0.564E-01 0.510E-03 0.100E-11 .00000E+00 0.000E+00 0.000E+00
