1
    SWAT Jun 01 2011    VER 2009/Rev. 481                                                                0/ 0/   0      0: 0: 0

    General Input/Output section (file.cio):                                        
    2013-7-14 00:00:00 ARCGIS-SWAT interface AV                                     
                                                                                    
         Number of years in run:    8
         Area of watershed:      291.090 km2
         Random number generator cycles: 0, use default numbers

         Initial random number seed: wet/dry day prob        748932582
         Initial random number seed: radiation              1948832765
         Initial random number seed: precipitation           857034417
         Initial random number seed: 0.5 hr rainfall          67377721
         Initial random number seed: wind speed              366304404
         Initial random number seed: irrigation             1094585182
         Initial random number seed: relative humidity      1767585417
         Initial random number seed: max temperature         608439319
         Initial random number seed: min temperature         592757081

         Precipitation data used in run:
          Multiple gages read for watershed
             Daily rainfall data used

         Temperature data used in run:
          Multiple gages read for watershed

         PET method used: Penman-Monteith

         Rainfall/Runoff/Routing Option:
          Daily rainfall data
          Runoff estimated with curve number method
          Daily stream routing
           Muskingum routing method
           Channel dimensions remain constant
           Subbasin algae/CBOD loadings modeled
           In-stream nutrient transformations modeled using QUAL2E equations

         Subbasin Input Summary:
          Sub Latitude  Elev(m) #HRUs Ponds Elevbnds Wetlnd
            1    25.51   776.39     6                   
            2    25.49   759.39     7                   
            3    25.43   573.28    12                   
            4    25.40   604.10    11                   
            5    25.37   512.86     4                   

         HRU Input Summary Table 1:
          Sub   HRU   Area(ha) Slope SlpLgth(m) Ovrlnd_N CondII_CN TimeConc(hr) ESCO EPCO
            1     1    2618.05 0.401       9.15    0.200     52.48        0.510 0.50 0.10
            1     2    4092.33 0.378       9.15    0.200     47.48        0.705 0.50 0.10
            1     3     461.68 0.322       9.15    0.200     63.31        0.201 0.85 0.10
            1     4     149.00 0.292       9.15    0.200     85.27        0.149 0.85 0.10
            1     5     225.39 0.329       9.15    0.200     81.66        0.159 0.85 0.10
            1     6     137.20 0.255       9.15    0.200     81.66        0.151 0.85 0.10
            2     7     250.91 0.279       9.15    0.200     60.81        0.150 0.50 0.10
            2     8     218.22 0.312       9.15    0.200     58.31        0.142 0.50 0.10
            2     9     156.69 0.316       9.15    0.200     58.31        0.135 0.50 0.10
            2    10    2619.22 0.374       9.15    0.200     52.48        0.362 0.50 0.10
            2    11    4055.17 0.407       9.15    0.200     47.48        0.479 0.50 0.10
            2    12     729.62 0.312       9.15    0.200     68.31        0.197 0.85 0.10
            2    13     521.63 0.282       9.15    0.200     63.31        0.179 0.85 0.10
            3    14     161.57 0.333       9.15    0.200     60.81        0.149 0.50 0.10
            3    15      95.22 0.177      18.29    0.200     51.65        0.228 0.50 0.10
            3    16      24.31 0.003     121.95    0.200     51.65        2.166 0.50 0.10
            3    17    1395.74 0.418       9.15    0.200     52.48        0.355 0.50 0.10
            3    18     553.32 0.498       9.15    0.200     47.48        0.210 0.50 0.10
            3    19     409.36 0.311       9.15    0.200     68.31        0.199 0.85 0.10
            3    20     584.43 0.266       9.15    0.200     54.15        0.236 0.85 0.10
            3    21      64.98 0.243      15.24    0.200     85.27        0.183 0.85 0.10
            3    22      32.11 0.002     121.95    0.200     85.27        2.448 0.85 0.10
            3    23      53.30 0.207      15.24    0.200     74.94        0.189 0.85 0.10
            3    24      23.26 0.002     121.95    0.200     81.66        2.445 0.85 0.10
            3    25      45.00 0.155      24.39    0.200     81.66        0.264 0.85 0.10
            4    26      94.95 0.293       9.15    0.200     51.65        0.136 0.50 0.10
            4    27     168.27 0.260       9.15    0.200     58.31        0.153 0.50 0.10
            4    28     100.82 0.262       9.15    0.200     60.81        0.141 0.50 0.10
            4    29     421.58 0.412       9.15    0.200     47.48        0.179 0.50 0.10
            4    30     805.38 0.393       9.15    0.200     36.65        0.237 0.50 0.10
            4    31    1186.46 0.330       9.15    0.200     54.15        0.296 0.85 0.10
            4    32     642.67 0.315       9.15    0.200     63.31        0.221 0.85 0.10
            4    33      68.43 0.281       9.15    0.200     74.94        0.132 0.85 0.10
            4    34      48.36 0.227      15.24    0.200     81.66        0.181 0.85 0.10
            4    35      84.30 0.262       9.15    0.200     85.27        0.138 0.85 0.10
            4    36      26.00 0.001     121.95    0.200     85.27        3.008 0.85 0.10
            5    37    3526.14 0.437       9.15    0.200     52.48        0.767 0.50 0.10
            5    38    1232.73 0.345       9.15    0.200     68.31        0.375 0.85 0.10
            5    39     542.44 0.333       9.15    0.200     54.15        0.240 0.85 0.10
            5    40     626.13 0.323       9.15    0.200     63.31        0.259 0.85 0.10

         HRU CN Input Summary Table:
          Sub   HRU   Area(ha)  LULC      Soil    CN1    CN2    CN3  Wilting Point (mm H2O)  Field Capacity (mm H2O)  Saturation (mm H2O)
            1     1    2618.05  FRST  GLH        32.7   52.5   72.3                   174.7                    222.9                278.8
            1     2    4092.33  FRST  HHR        27.6   47.5   67.6                   167.4                    189.8                234.5
            1     3     461.68  ORCD  HHR        44.0   63.3   81.0                   167.4                    189.8                234.5
            1     4     149.00  BERM  GLH        70.3   85.3   94.2                   174.7                    222.9                278.8
            1     5     225.39  BERM  HHR        65.2   81.7   92.4                   167.4                    189.8                234.5
            1     6     137.20  BERM  SSDT       65.2   81.7   92.4                    99.6                    184.8                229.0
            2     7     250.91  RICE  GLH        41.3   60.8   79.2                   174.7                    222.9                278.8
            2     8     218.22  RICE  HHR        38.7   58.3   77.2                   167.4                    189.8                234.5
            2     9     156.69  RICE  SSDT       38.7   58.3   77.2                    99.6                    184.8                229.0
            2    10    2619.22  FRST  GLH        32.7   52.5   72.3                   174.7                    222.9                278.8
            2    11    4055.17  FRST  HHR        27.6   47.5   67.6                   167.4                    189.8                234.5
            2    12     729.62  ORCD  GLH        49.3   68.3   84.5                   174.7                    222.9                278.8
            2    13     521.63  ORCD  SSDT       44.0   63.3   81.0                    99.6                    184.8                229.0
            3    14     161.57  RICE  GLH        41.3   60.8   79.2                   174.7                    222.9                278.8
            3    15      95.22  RICE  LGH        31.9   51.6   71.5                   366.7                    423.6                462.6
            3    16      24.31  RICE  LGH        31.9   51.6   71.5                   366.7                    423.6                462.6
            3    17    1395.74  FRST  GLH        32.7   52.5   72.3                   174.7                    222.9                278.8
            3    18     553.32  FRST  HHR        27.6   47.5   67.6                   167.4                    189.8                234.5
            3    19     409.36  ORCD  GLH        49.3   68.3   84.5                   174.7                    222.9                278.8
            3    20     584.43  ORCD  LGH        34.4   54.1   73.7                   366.7                    423.6                462.6
            3    21      64.98  BERM  GLH        70.3   85.3   94.2                   174.7                    222.9                278.8
            3    22      32.11  BERM  GLH        70.3   85.3   94.2                   174.7                    222.9                278.8
            3    23      53.30  BERM  LGH        56.8   74.9   88.7                   366.7                    423.6                462.6
            3    24      23.26  BERM  SSDT       65.2   81.7   92.4                    99.6                    184.8                229.0
            3    25      45.00  BERM  SSDT       65.2   81.7   92.4                    99.6                    184.8                229.0
            4    26      94.95  RICE  LGH        31.9   51.6   71.5                   366.7                    423.6                462.6
            4    27     168.27  RICE  SSDT       38.7   58.3   77.2                    99.6                    184.8                229.0
            4    28     100.82  RICE  ZSDT       41.3   60.8   79.2                   104.3                    204.3                242.4
            4    29     421.58  FRST  HHR        27.6   47.5   67.6                   167.4                    189.8                234.5
            4    30     805.38  FRST  LGH        16.7   36.7   56.1                   366.7                    423.6                462.6
            4    31    1186.46  ORCD  LGH        34.4   54.1   73.7                   366.7                    423.6                462.6
            4    32     642.67  ORCD  SSDT       44.0   63.3   81.0                    99.6                    184.8                229.0
            4    33      68.43  BERM  LGH        56.8   74.9   88.7                   366.7                    423.6                462.6
            4    34      48.36  BERM  SSDT       65.2   81.7   92.4                    99.6                    184.8                229.0
            4    35      84.30  BERM  ZSDT       70.3   85.3   94.2                   104.3                    204.3                242.4
            4    36      26.00  BERM  ZSDT       70.3   85.3   94.2                   104.3                    204.3                242.4
            5    37    3526.14  FRST  GLH        32.7   52.5   72.3                   174.7                    222.9                278.8
            5    38    1232.73  ORCD  GLH        49.3   68.3   84.5                   174.7                    222.9                278.8
            5    39     542.44  ORCD  LGH        34.4   54.1   73.7                   366.7                    423.6                462.6
            5    40     626.13  ORCD  SSDT       44.0   63.3   81.0                    99.6                    184.8                229.0

         HRU Input Summary Table 2:
          Sub   HRU   Area(ha)         SoilName Hydgrp MaxRtDpth(mm) Albedo USLE_K USLE_P USLE_LS ProfileAWC(mm) IniSoilH2O(mm)
            1     1    2618.05 GLH                D          1020.00   0.10   0.10   1.00    6.37    222.900        205.768
            1     2    4092.33 HHR                C           820.00   0.20   0.10   1.00    5.80    189.849        175.258
            1     3     461.68 HHR                C           820.00   0.20   0.10   1.00    4.48    189.849        175.258
            1     4     149.00 GLH                D          1020.00   0.10   0.10   1.00    3.82    222.900        205.768
            1     5     225.39 HHR                C           820.00   0.20   0.10   1.00    4.64    189.849        175.258
            1     6     137.20 SSDT               C           820.00   0.10   0.01   1.00    3.05    184.800        170.596
            2     7     250.91 GLH                D           900.00   0.10   0.10   1.00    3.54    222.900        205.768
            2     8     218.22 HHR                C           820.00   0.20   0.10   1.00    4.25    189.849        175.258
            2     9     156.69 SSDT               C           820.00   0.10   0.01   1.00    4.34    184.800        170.596
            2    10    2619.22 GLH                D          1020.00   0.10   0.10   1.00    5.70    222.900        205.768
            2    11    4055.17 HHR                C           820.00   0.20   0.10   1.00    6.52    189.849        175.258
            2    12     729.62 GLH                D          1020.00   0.10   0.10   1.00    4.25    222.900        205.768
            2    13     521.63 SSDT               C           820.00   0.10   0.01   1.00    3.60    184.800        170.596
            3    14     161.57 GLH                D           900.00   0.10   0.10   1.00    4.73    222.900        205.768
            3    15      95.22 LGH                B           900.00   0.20   0.10   1.00    2.54    423.600        391.043
            3    16      24.31 LGH                B           900.00   0.20   0.10   1.00    0.09    423.600        391.043
            3    17    1395.74 GLH                D          1020.00   0.10   0.10   1.00    6.80    222.900        205.768
            3    18     553.32 HHR                C           820.00   0.20   0.10   1.00    8.88    189.849        175.258
            3    19     409.36 GLH                D          1020.00   0.10   0.10   1.00    4.23    222.900        205.768
            3    20     584.43 LGH                B          1520.00   0.20   0.10   1.00    3.27    423.600        391.043
            3    21      64.98 GLH                D          1020.00   0.10   0.10   1.00    3.83    222.900        205.768
            3    22      32.11 GLH                D          1020.00   0.10   0.10   1.00    0.08    222.900        205.768
            3    23      53.30 LGH                B          1520.00   0.20   0.10   1.00    2.94    423.600        391.043
            3    24      23.26 SSDT               C           820.00   0.10   0.01   1.00    0.08    184.800        170.596
            3    25      45.00 SSDT               C           820.00   0.10   0.01   1.00    2.44    184.800        170.596
            4    26      94.95 LGH                B           900.00   0.20   0.10   1.00    3.84    423.600        391.043
            4    27     168.27 SSDT               C           820.00   0.10   0.01   1.00    3.15    184.800        170.596
            4    28     100.82 ZSDT               D           820.00   0.10   0.01   1.00    3.19    204.300        188.598
            4    29     421.58 HHR                C           820.00   0.20   0.10   1.00    6.65    189.849        175.258
            4    30     805.38 LGH                B          1520.00   0.20   0.10   1.00    6.17    423.600        391.043
            4    31    1186.46 LGH                B          1520.00   0.20   0.10   1.00    4.66    423.600        391.043
            4    32     642.67 SSDT               C           820.00   0.10   0.01   1.00    4.32    184.800        170.596
            4    33      68.43 LGH                B          1520.00   0.20   0.10   1.00    3.58    423.600        391.043
            4    34      48.36 SSDT               C           820.00   0.10   0.01   1.00    3.42    184.800        170.596
            4    35      84.30 ZSDT               D           820.00   0.10   0.01   1.00    3.19    204.300        188.598
            4    36      26.00 ZSDT               D           820.00   0.10   0.01   1.00    0.07    204.300        188.598
            5    37    3526.14 GLH                D          1020.00   0.10   0.10   1.00    7.29    222.900        205.768
            5    38    1232.73 GLH                D          1020.00   0.10   0.10   1.00    5.01    222.900        205.768
            5    39     542.44 LGH                B          1520.00   0.20   0.10   1.00    4.73    423.600        391.043
            5    40     626.13 SSDT               C           820.00   0.10   0.01   1.00    4.50    184.800        170.596

         HRU Input Summary Table 3:
          Sub   HRU   Area(ha) Urban Irrig DrainTiles Pothole Pstcide Biomix Septic
            1     1    2618.05                                          0.20 x
            1     2    4092.33                                          0.20 x
            1     3     461.68                                          0.20 x
            1     4     149.00   x                                      0.20 x
            1     5     225.39   x                                      0.20 x
            1     6     137.20   x                                      0.20 x
            2     7     250.91                                          0.20 x
            2     8     218.22                                          0.20 x
            2     9     156.69                                          0.20 x
            2    10    2619.22                                          0.20 x
            2    11    4055.17                                          0.20 x
            2    12     729.62                                          0.20 x
            2    13     521.63                                          0.20 x
            3    14     161.57                                          0.20 x
            3    15      95.22                                          0.20 x
            3    16      24.31                                          0.20 x
            3    17    1395.74                                          0.20 x
            3    18     553.32                                          0.20 x
            3    19     409.36                                          0.20 x
            3    20     584.43                                          0.20 x
            3    21      64.98   x                                      0.20 x
            3    22      32.11   x                                      0.20 x
            3    23      53.30   x                                      0.20 x
            3    24      23.26   x                                      0.20 x
            3    25      45.00   x                                      0.20 x
            4    26      94.95                                          0.20 x
            4    27     168.27                                          0.20 x
            4    28     100.82                                          0.20 x
            4    29     421.58                                          0.20 x
            4    30     805.38                                          0.20 x
            4    31    1186.46                                          0.20 x
            4    32     642.67                                          0.20 x
            4    33      68.43   x                                      0.20 x
            4    34      48.36   x                                      0.20 x
            4    35      84.30   x                                      0.20 x
            4    36      26.00   x                                      0.20 x
            5    37    3526.14                                          0.20 x
            5    38    1232.73                                          0.20 x
            5    39     542.44                                          0.20 x
            5    40     626.13                                          0.20 x

         HRU Input Summary Table 4 (Groundwater):
          Sub   HRU   Area(ha) GWdelay(days), GWalpha(days) GWQmin(mm) GWrevap Revapmin(mm) Deepfr NO3(ppm) SolP(ppm)
            1     1    2618.05        35.929         0.045     30.000   0.200        5.000  0.300    0.000     0.000
            1     2    4092.33        35.929         0.045     30.000   0.200        5.000  0.300    0.000     0.000
            1     3     461.68        35.929         0.045     30.000   0.200        5.000  0.300    0.000     0.000
            1     4     149.00        35.929         0.045     30.000   0.200        5.000  0.300    0.000     0.000
            1     5     225.39        35.929         0.045     30.000   0.200        5.000  0.300    0.000     0.000
            1     6     137.20        35.929         0.045     30.000   0.200        5.000  0.300    0.000     0.000
            2     7     250.91        35.929         0.045     30.000   0.200        5.000  0.300    0.000     0.000
            2     8     218.22        35.929         0.045     30.000   0.200        5.000  0.300    0.000     0.000
            2     9     156.69        35.929         0.045     30.000   0.200        5.000  0.300    0.000     0.000
            2    10    2619.22        35.929         0.045     30.000   0.200        5.000  0.300    0.000     0.000
            2    11    4055.17        35.929         0.045     30.000   0.200        5.000  0.300    0.000     0.000
            2    12     729.62        35.929         0.045     30.000   0.200        5.000  0.300    0.000     0.000
            2    13     521.63        35.929         0.045     30.000   0.200        5.000  0.300    0.000     0.000
            3    14     161.57        35.929         0.045     30.000   0.200        5.000  0.300    0.000     0.000
            3    15      95.22        35.929         0.045     30.000   0.200        5.000  0.300    0.000     0.000
            3    16      24.31        35.929         0.045     30.000   0.200        5.000  0.300    0.000     0.000
            3    17    1395.74        35.929         0.045     30.000   0.200        5.000  0.300    0.000     0.000
            3    18     553.32        35.929         0.045     30.000   0.200        5.000  0.300    0.000     0.000
            3    19     409.36        35.929         0.045     30.000   0.200        5.000  0.300    0.000     0.000
            3    20     584.43        35.929         0.045     30.000   0.200        5.000  0.300    0.000     0.000
            3    21      64.98        35.929         0.045     30.000   0.200        5.000  0.300    0.000     0.000
            3    22      32.11        35.929         0.045     30.000   0.200        5.000  0.300    0.000     0.000
            3    23      53.30        35.929         0.045     30.000   0.200        5.000  0.300    0.000     0.000
            3    24      23.26        35.929         0.045     30.000   0.200        5.000  0.300    0.000     0.000
            3    25      45.00        35.929         0.045     30.000   0.200        5.000  0.300    0.000     0.000
            4    26      94.95        35.929         0.045     30.000   0.200        5.000  0.300    0.000     0.000
            4    27     168.27        35.929         0.045     30.000   0.200        5.000  0.300    0.000     0.000
            4    28     100.82        35.929         0.045     30.000   0.200        5.000  0.300    0.000     0.000
            4    29     421.58        35.929         0.045     30.000   0.200        5.000  0.300    0.000     0.000
            4    30     805.38        35.929         0.045     30.000   0.200        5.000  0.300    0.000     0.000
            4    31    1186.46        35.929         0.045     30.000   0.200        5.000  0.300    0.000     0.000
            4    32     642.67        35.929         0.045     30.000   0.200        5.000  0.300    0.000     0.000
            4    33      68.43        35.929         0.045     30.000   0.200        5.000  0.300    0.000     0.000
            4    34      48.36        35.929         0.045     30.000   0.200        5.000  0.300    0.000     0.000
            4    35      84.30        35.929         0.045     30.000   0.200        5.000  0.300    0.000     0.000
            4    36      26.00        35.929         0.045     30.000   0.200        5.000  0.300    0.000     0.000
            5    37    3526.14        35.929         0.045     30.000   0.200        5.000  0.300    0.000     0.000
            5    38    1232.73        35.929         0.045     30.000   0.200        5.000  0.300    0.000     0.000
            5    39     542.44        35.929         0.045     30.000   0.200        5.000  0.300    0.000     0.000
            5    40     626.13        35.929         0.045     30.000   0.200        5.000  0.300    0.000     0.000

         Tributary/Main Channel Characteristics
              |--------------Tributary--------------------|---------------------Main----------------------------------|
          Sub  Length(km) Slope Width(m) Cond(mm/hr)     N Length(km) Slope Width(m) Depth(m) Cond(mm/hr)     N  MSK_K
            1       21.06 0.040    17.40      0.5000 0.014       8.82 0.016    17.40     0.74      2.6010 0.025  6.194
            2       16.54 0.054    18.56      0.5000 0.014       7.97 0.020    18.56     0.77      2.6010 0.025  4.920
            3       12.21 0.065    10.75      0.5000 0.014       7.80 0.008    30.60     1.07      2.6010 0.025  6.168
            4       10.81 0.063    11.13      0.5000 0.014       2.32 0.017    11.13     0.55      2.6010 0.025  1.933
            5       20.56 0.040    14.90      0.5000 0.014      14.09 0.009    38.82     1.26      2.6010 0.025  9.526
