1
    SWAT Jun 01 2011    VER 2009/Rev. 481                                                                0/ 0/   0      0: 0: 0

    General Input/Output section (file.cio):                                        
    2013-7-14 00:00:00 ARCGIS-SWAT interface AV                                     
                                                                                    


       RCH      GIS   MON     AREAkm2  FLOW_INcms FLOW_OUTcms     EVAPcms    TLOSScms  SED_INtons SED_OUTtonsSEDCONCmg/kg   ORGN_INkg  ORGN_OUTkg   ORGP_INkg  ORGP_OUTkg    NO3_INkg   NO3_OUTkg    NH4_INkg   NH4_OUTkg    NO2_INkg   NO2_OUTkg   MINP_INkg  MINP_OUTkg   CHLA_INkg  CHLA_OUTkg   CBOD_INkg  CBOD_OUTkg  DISOX_INkg DISOX_OUTkg SOLPST_INmgSOLPST_OUTmg SORPST_INmgSORPST_OUTmg  REACTPSTmg    VOLPSTmg  SETTLPSTmgRESUSP_PSTmgDIFFUSEPSTmgREACBEDPSTmg   BURYPSTmg   BED_PSTmg BACTP_OUTctBACTLP_OUTct  CMETAL#1kg  CMETAL#2kg  CMETAL#3kg
REACH    1        0     1  0.7646E+02  0.1132E+00  0.1121E+00  0.9089E-03  0.9302E-01  0.1680E-01  0.1680E-01  0.1735E+01  0.7236E-01  0.5919E-01  0.1068E-01  0.7789E-02  0.1400E+02  0.1386E+02  0.0000E+00  0.0000E+00  0.0000E+00  0.0000E+00  0.4006E-02  0.1190E-01  0.0000E+00  0.0000E+00  0.0000E+00  0.0000E+00  0.0000E+00  0.2905E-01  0.0000E+00  0.0000E+00  0.0000E+00  0.0000E+00  0.0000E+00  0.0000E+00  0.0000E+00  0.0000E+00  0.0000E+00  0.0000E+00  0.0000E+00  0.0000E+00  0.0000E+00  0.0000E+00  0.0000E+00  0.0000E+00  0.0000E+00
REACH    2        0     1  0.8510E+02  0.9816E-01  0.9661E-01  0.8760E-03  0.8970E-01  0.3554E-02  0.3554E-02  0.4257E+00  0.5592E-02  0.4548E-02  0.9965E-03  0.7229E-03  0.1234E+02  0.1215E+02  0.0000E+00  0.0000E+00  0.0000E+00  0.0000E+00  0.1017E-02  0.3003E-02  0.0000E+00  0.0000E+00  0.0000E+00  0.0000E+00  0.0000E+00  0.2504E-01  0.0000E+00  0.0000E+00  0.0000E+00  0.0000E+00  0.0000E+00  0.0000E+00  0.0000E+00  0.0000E+00  0.0000E+00  0.0000E+00  0.0000E+00  0.0000E+00  0.0000E+00  0.0000E+00  0.0000E+00  0.0000E+00  0.0000E+00
REACH    3        0     1  0.1958E+03  0.2416E+00  0.2399E+00  0.1438E-02  0.1489E+00  0.2869E-01  0.2072E+00  0.9997E+01  0.1543E+00  0.1266E+00  0.2328E-01  0.1704E-01  0.3550E+02  0.3525E+02  0.0000E+00  0.0000E+00  0.0000E+00  0.0000E+00  0.2880E-01  0.5093E-01  0.0000E+00  0.0000E+00  0.0000E+00  0.0000E+00  0.5409E-01  0.1611E+00  0.0000E+00  0.0000E+00  0.0000E+00  0.0000E+00  0.0000E+00  0.0000E+00  0.0000E+00  0.0000E+00  0.0000E+00  0.0000E+00  0.0000E+00  0.0000E+00  0.0000E+00  0.0000E+00  0.0000E+00  0.0000E+00  0.0000E+00
REACH    4        0     1  0.3629E+02  0.5117E-01  0.5100E-01  0.1465E-03  0.1515E-01  0.3311E-02  0.3311E-02  0.7515E+00  0.4154E-01  0.3421E-01  0.6630E-02  0.4871E-02  0.8875E+01  0.8845E+01  0.0000E+00  0.0000E+00  0.0000E+00  0.0000E+00  0.3842E-02  0.1078E-01  0.0000E+00  0.0000E+00  0.0000E+00  0.0000E+00  0.0000E+00  0.1322E-01  0.0000E+00  0.0000E+00  0.0000E+00  0.0000E+00  0.0000E+00  0.0000E+00  0.0000E+00  0.0000E+00  0.0000E+00  0.0000E+00  0.0000E+00  0.0000E+00  0.0000E+00  0.0000E+00  0.0000E+00  0.0000E+00  0.0000E+00
REACH    5        0     1  0.2911E+03  0.3445E+00  0.3442E+00  0.0000E+00  0.3445E+00  0.3062E+00  0.6442E+00  0.2166E+02  0.2317E+00  0.1913E+00  0.4104E-01  0.3023E-01  0.5270E+02  0.5266E+02  0.0000E+00  0.0000E+00  0.0000E+00  0.0000E+00  0.8877E-01  0.1225E+00  0.0000E+00  0.0000E+00  0.0000E+00  0.0000E+00  0.1744E+00  0.5226E+00  0.0000E+00  0.0000E+00  0.0000E+00  0.0000E+00  0.0000E+00  0.0000E+00  0.0000E+00  0.0000E+00  0.0000E+00  0.0000E+00  0.0000E+00  0.0000E+00  0.0000E+00  0.0000E+00  0.0000E+00  0.0000E+00  0.0000E+00
REACH    1        0     2  0.7646E+02  0.1033E+00  0.1019E+00  0.1210E-02  0.9273E-01  0.6966E-02  0.6966E-02  0.7912E+00  0.3448E-01  0.2829E-01  0.4993E-02  0.3670E-02  0.1283E+02  0.1266E+02  0.0000E+00  0.0000E+00  0.0000E+00  0.0000E+00  0.1714E-02  0.5074E-02  0.0000E+00  0.0000E+00  0.0000E+00  0.0000E+00  0.0000E+00  0.2641E-01  0.0000E+00  0.0000E+00  0.0000E+00  0.0000E+00  0.0000E+00  0.0000E+00  0.0000E+00  0.0000E+00  0.0000E+00  0.0000E+00  0.0000E+00  0.0000E+00  0.0000E+00  0.0000E+00  0.0000E+00  0.0000E+00  0.0000E+00
REACH    2        0     2  0.8510E+02  0.8905E-01  0.8887E-01  0.0000E+00  0.8905E-01  0.7005E-03  0.7005E-03  0.9123E-01  0.1779E-02  0.1476E-02  0.2915E-03  0.2167E-03  0.1099E+02  0.1097E+02  0.0000E+00  0.0000E+00  0.0000E+00  0.0000E+00  0.2514E-03  0.7526E-03  0.0000E+00  0.0000E+00  0.0000E+00  0.0000E+00  0.0000E+00  0.2304E-01  0.0000E+00  0.0000E+00  0.0000E+00  0.0000E+00  0.0000E+00  0.0000E+00  0.0000E+00  0.0000E+00  0.0000E+00  0.0000E+00  0.0000E+00  0.0000E+00  0.0000E+00  0.0000E+00  0.0000E+00  0.0000E+00  0.0000E+00
REACH    3        0     2  0.1958E+03  0.2190E+00  0.2167E+00  0.1921E-02  0.1489E+00  0.1433E-01  0.1786E+00  0.9538E+01  0.1029E+00  0.8465E-01  0.1583E-01  0.1167E-01  0.3151E+02  0.3118E+02  0.0000E+00  0.0000E+00  0.0000E+00  0.0000E+00  0.1696E-01  0.3491E-01  0.0000E+00  0.0000E+00  0.0000E+00  0.0000E+00  0.4945E-01  0.1468E+00  0.0000E+00  0.0000E+00  0.0000E+00  0.0000E+00  0.0000E+00  0.0000E+00  0.0000E+00  0.0000E+00  0.0000E+00  0.0000E+00  0.0000E+00  0.0000E+00  0.0000E+00  0.0000E+00  0.0000E+00  0.0000E+00  0.0000E+00
REACH    4        0     2  0.3629E+02  0.4449E-01  0.4426E-01  0.1958E-03  0.1515E-01  0.2423E-02  0.2423E-02  0.6337E+00  0.3282E-01  0.2714E-01  0.5287E-02  0.3917E-02  0.7606E+01  0.7566E+01  0.0000E+00  0.0000E+00  0.0000E+00  0.0000E+00  0.3012E-02  0.8650E-02  0.0000E+00  0.0000E+00  0.0000E+00  0.0000E+00  0.0000E+00  0.1147E-01  0.0000E+00  0.0000E+00  0.0000E+00  0.0000E+00  0.0000E+00  0.0000E+00  0.0000E+00  0.0000E+00  0.0000E+00  0.0000E+00  0.0000E+00  0.0000E+00  0.0000E+00  0.0000E+00  0.0000E+00  0.0000E+00  0.0000E+00
REACH    5        0     2  0.2911E+03  0.3018E+00  0.3177E+00  0.0000E+00  0.3018E+00  0.2298E+00  0.5515E+00  0.2009E+02  0.1479E+00  0.1295E+00  0.2535E-01  0.1988E-01  0.4501E+02  0.4739E+02  0.0000E+00  0.0000E+00  0.0000E+00  0.0000E+00  0.5733E-01  0.8775E-01  0.0000E+00  0.0000E+00  0.0000E+00  0.0000E+00  0.1583E+00  0.4999E+00  0.0000E+00  0.0000E+00  0.0000E+00  0.0000E+00  0.0000E+00  0.0000E+00  0.0000E+00  0.0000E+00  0.0000E+00  0.0000E+00  0.0000E+00  0.0000E+00  0.0000E+00  0.0000E+00  0.0000E+00  0.0000E+00  0.0000E+00
REACH    1        0     3  0.7646E+02  0.9508E-01  0.9350E-01  0.1327E-02  0.9273E-01  0.3009E-02  0.3009E-02  0.3725E+00  0.1664E-01  0.1346E-01  0.2374E-02  0.1706E-02  0.1189E+02  0.1169E+02  0.0000E+00  0.0000E+00  0.0000E+00  0.0000E+00  0.7523E-03  0.2219E-02  0.0000E+00  0.0000E+00  0.0000E+00  0.0000E+00  0.0000E+00  0.2423E-01  0.0000E+00  0.0000E+00  0.0000E+00  0.0000E+00  0.0000E+00  0.0000E+00  0.0000E+00  0.0000E+00  0.0000E+00  0.0000E+00  0.0000E+00  0.0000E+00  0.0000E+00  0.0000E+00  0.0000E+00  0.0000E+00  0.0000E+00
REACH    2        0     3  0.8510E+02  0.8147E-01  0.8417E-01  0.0000E+00  0.8147E-01  0.1836E-03  0.1836E-03  0.2525E-01  0.5898E-03  0.5012E-03  0.9759E-04  0.7368E-04  0.9937E+01  0.1027E+02  0.0000E+00  0.0000E+00  0.0000E+00  0.0000E+00  0.6683E-04  0.2072E-03  0.0000E+00  0.0000E+00  0.0000E+00  0.0000E+00  0.0000E+00  0.2182E-01  0.0000E+00  0.0000E+00  0.0000E+00  0.0000E+00  0.0000E+00  0.0000E+00  0.0000E+00  0.0000E+00  0.0000E+00  0.0000E+00  0.0000E+00  0.0000E+00  0.0000E+00  0.0000E+00  0.0000E+00  0.0000E+00  0.0000E+00
REACH    3        0     3  0.1958E+03  0.2020E+00  0.1995E+00  0.2109E-02  0.1489E+00  0.8579E-02  0.1611E+00  0.9344E+01  0.7321E-01  0.5944E-01  0.1146E-01  0.8267E-02  0.2853E+02  0.2817E+02  0.0000E+00  0.0000E+00  0.0000E+00  0.0000E+00  0.1140E-01  0.2872E-01  0.0000E+00  0.0000E+00  0.0000E+00  0.0000E+00  0.4605E-01  0.1364E+00  0.0000E+00  0.0000E+00  0.0000E+00  0.0000E+00  0.0000E+00  0.0000E+00  0.0000E+00  0.0000E+00  0.0000E+00  0.0000E+00  0.0000E+00  0.0000E+00  0.0000E+00  0.0000E+00  0.0000E+00  0.0000E+00  0.0000E+00
REACH    4        0     3  0.3629E+02  0.3887E-01  0.3860E-01  0.2150E-03  0.1515E-01  0.1983E-02  0.1983E-02  0.5945E+00  0.2736E-01  0.2234E-01  0.4418E-02  0.3206E-02  0.6642E+01  0.6597E+01  0.0000E+00  0.0000E+00  0.0000E+00  0.0000E+00  0.2507E-02  0.7471E-02  0.0000E+00  0.0000E+00  0.0000E+00  0.0000E+00  0.0000E+00  0.1001E-01  0.0000E+00  0.0000E+00  0.0000E+00  0.0000E+00  0.0000E+00  0.0000E+00  0.0000E+00  0.0000E+00  0.0000E+00  0.0000E+00  0.0000E+00  0.0000E+00  0.0000E+00  0.0000E+00  0.0000E+00  0.0000E+00  0.0000E+00
REACH    5        0     3  0.2911E+03  0.2701E+00  0.2880E+00  0.0000E+00  0.2701E+00  0.1882E+00  0.4787E+00  0.1924E+02  0.1004E+00  0.8808E-01  0.1652E-01  0.1287E-01  0.3962E+02  0.4225E+02  0.0000E+00  0.0000E+00  0.0000E+00  0.0000E+00  0.4328E-01  0.7166E-01  0.0000E+00  0.0000E+00  0.0000E+00  0.0000E+00  0.1464E+00  0.4684E+00  0.0000E+00  0.0000E+00  0.0000E+00  0.0000E+00  0.0000E+00  0.0000E+00  0.0000E+00  0.0000E+00  0.0000E+00  0.0000E+00  0.0000E+00  0.0000E+00  0.0000E+00  0.0000E+00  0.0000E+00  0.0000E+00  0.0000E+00
REACH    1        0     4  0.7646E+02  0.8811E-01  0.8959E-01  0.0000E+00  0.8811E-01  0.1327E-02  0.1327E-02  0.1714E+00  0.8071E-02  0.6654E-02  0.1139E-02  0.8251E-03  0.1108E+02  0.1127E+02  0.0000E+00  0.0000E+00  0.0000E+00  0.0000E+00  0.3369E-03  0.1028E-02  0.0000E+00  0.0000E+00  0.0000E+00  0.0000E+00  0.0000E+00  0.2322E-01  0.0000E+00  0.0000E+00  0.0000E+00  0.0000E+00  0.0000E+00  0.0000E+00  0.0000E+00  0.0000E+00  0.0000E+00  0.0000E+00  0.0000E+00  0.0000E+00  0.0000E+00  0.0000E+00  0.0000E+00  0.0000E+00  0.0000E+00
REACH    2        0     4  0.8510E+02  0.7498E-01  0.7835E-01  0.0000E+00  0.7498E-01  0.5172E-04  0.5172E-04  0.7640E-02  0.2000E-03  0.1694E-03  0.3979E-04  0.2962E-04  0.9059E+01  0.9466E+01  0.0000E+00  0.0000E+00  0.0000E+00  0.0000E+00  0.1932E-04  0.6058E-04  0.0000E+00  0.0000E+00  0.0000E+00  0.0000E+00  0.0000E+00  0.2031E-01  0.0000E+00  0.0000E+00  0.0000E+00  0.0000E+00  0.0000E+00  0.0000E+00  0.0000E+00  0.0000E+00  0.0000E+00  0.0000E+00  0.0000E+00  0.0000E+00  0.0000E+00  0.0000E+00  0.0000E+00  0.0000E+00  0.0000E+00
REACH    3        0     4  0.1958E+03  0.1891E+00  0.1861E+00  0.2515E-02  0.1489E+00  0.5741E-02  0.1486E+00  0.9244E+01  0.5486E-01  0.4376E-01  0.8705E-02  0.6102E-02  0.2624E+02  0.2582E+02  0.0000E+00  0.0000E+00  0.0000E+00  0.0000E+00  0.8343E-02  0.2463E-01  0.0000E+00  0.0000E+00  0.0000E+00  0.0000E+00  0.4353E-01  0.1285E+00  0.0000E+00  0.0000E+00  0.0000E+00  0.0000E+00  0.0000E+00  0.0000E+00  0.0000E+00  0.0000E+00  0.0000E+00  0.0000E+00  0.0000E+00  0.0000E+00  0.0000E+00  0.0000E+00  0.0000E+00  0.0000E+00  0.0000E+00
REACH    4        0     4  0.3629E+02  0.3406E-01  0.3375E-01  0.2562E-03  0.1515E-01  0.1667E-02  0.1667E-02  0.5716E+00  0.2309E-01  0.1855E-01  0.3732E-02  0.2635E-02  0.5837E+01  0.5784E+01  0.0000E+00  0.0000E+00  0.0000E+00  0.0000E+00  0.2116E-02  0.6290E-02  0.0000E+00  0.0000E+00  0.0000E+00  0.0000E+00  0.0000E+00  0.8747E-02  0.0000E+00  0.0000E+00  0.0000E+00  0.0000E+00  0.0000E+00  0.0000E+00  0.0000E+00  0.0000E+00  0.0000E+00  0.0000E+00  0.0000E+00  0.0000E+00  0.0000E+00  0.0000E+00  0.0000E+00  0.0000E+00  0.0000E+00
REACH    5        0     4  0.2911E+03  0.2455E+00  0.2613E+00  0.0000E+00  0.2455E+00  0.1633E+00  0.4214E+00  0.1867E+02  0.7199E-01  0.6212E-01  0.1135E-01  0.8610E-02  0.3550E+02  0.3779E+02  0.0000E+00  0.0000E+00  0.0000E+00  0.0000E+00  0.3459E-01  0.6152E-01  0.0000E+00  0.0000E+00  0.0000E+00  0.0000E+00  0.1372E+00  0.4382E+00  0.0000E+00  0.0000E+00  0.0000E+00  0.0000E+00  0.0000E+00  0.0000E+00  0.0000E+00  0.0000E+00  0.0000E+00  0.0000E+00  0.0000E+00  0.0000E+00  0.0000E+00  0.0000E+00  0.0000E+00  0.0000E+00  0.0000E+00
REACH    1        0     5  0.7646E+02  0.8208E-01  0.8481E-01  0.0000E+00  0.8208E-01  0.5955E-03  0.5955E-03  0.8126E-01  0.3929E-02  0.3240E-02  0.5504E-03  0.3938E-03  0.1038E+02  0.1072E+02  0.0000E+00  0.0000E+00  0.0000E+00  0.0000E+00  0.1536E-03  0.4760E-03  0.0000E+00  0.0000E+00  0.0000E+00  0.0000E+00  0.0000E+00  0.2198E-01  0.0000E+00  0.0000E+00  0.0000E+00  0.0000E+00  0.0000E+00  0.0000E+00  0.0000E+00  0.0000E+00  0.0000E+00  0.0000E+00  0.0000E+00  0.0000E+00  0.0000E+00  0.0000E+00  0.0000E+00  0.0000E+00  0.0000E+00
REACH    2        0     5  0.8510E+02  0.6938E-01  0.7269E-01  0.0000E+00  0.6938E-01  0.1508E-04  0.1508E-04  0.2401E-02  0.6932E-04  0.5796E-04  0.2418E-04  0.1754E-04  0.8311E+01  0.8707E+01  0.0000E+00  0.0000E+00  0.0000E+00  0.0000E+00  0.7787E-05  0.2448E-04  0.0000E+00  0.0000E+00  0.0000E+00  0.0000E+00  0.0000E+00  0.1884E-01  0.0000E+00  0.0000E+00  0.0000E+00  0.0000E+00  0.0000E+00  0.0000E+00  0.0000E+00  0.0000E+00  0.0000E+00  0.0000E+00  0.0000E+00  0.0000E+00  0.0000E+00  0.0000E+00  0.0000E+00  0.0000E+00  0.0000E+00
REACH    3        0     5  0.1958E+03  0.1761E+00  0.1733E+00  0.2205E-02  0.1489E+00  0.4145E-02  0.1376E+00  0.9187E+01  0.4225E-01  0.3320E-01  0.6779E-02  0.4621E-02  0.2406E+02  0.2369E+02  0.0000E+00  0.0000E+00  0.0000E+00  0.0000E+00  0.6368E-02  0.1881E-01  0.0000E+00  0.0000E+00  0.0000E+00  0.0000E+00  0.4082E-01  0.1206E+00  0.0000E+00  0.0000E+00  0.0000E+00  0.0000E+00  0.0000E+00  0.0000E+00  0.0000E+00  0.0000E+00  0.0000E+00  0.0000E+00  0.0000E+00  0.0000E+00  0.0000E+00  0.0000E+00  0.0000E+00  0.0000E+00  0.0000E+00
REACH    4        0     5  0.3629E+02  0.2994E-01  0.2966E-01  0.2245E-03  0.1515E-01  0.1409E-02  0.1409E-02  0.5498E+00  0.1954E-01  0.1545E-01  0.3161E-02  0.2168E-02  0.5151E+01  0.5102E+01  0.0000E+00  0.0000E+00  0.0000E+00  0.0000E+00  0.1791E-02  0.5324E-02  0.0000E+00  0.0000E+00  0.0000E+00  0.0000E+00  0.0000E+00  0.7688E-02  0.0000E+00  0.0000E+00  0.0000E+00  0.0000E+00  0.0000E+00  0.0000E+00  0.0000E+00  0.0000E+00  0.0000E+00  0.0000E+00  0.0000E+00  0.0000E+00  0.0000E+00  0.0000E+00  0.0000E+00  0.0000E+00  0.0000E+00
REACH    5        0     5  0.2911E+03  0.2239E+00  0.2378E+00  0.0000E+00  0.2239E+00  0.1458E+00  0.3730E+00  0.1816E+02  0.5368E-01  0.4550E-01  0.8152E-02  0.5995E-02  0.3200E+02  0.3399E+02  0.0000E+00  0.0000E+00  0.0000E+00  0.0000E+00  0.2604E-01  0.5208E-01  0.0000E+00  0.0000E+00  0.0000E+00  0.0000E+00  0.1283E+00  0.4087E+00  0.0000E+00  0.0000E+00  0.0000E+00  0.0000E+00  0.0000E+00  0.0000E+00  0.0000E+00  0.0000E+00  0.0000E+00  0.0000E+00  0.0000E+00  0.0000E+00  0.0000E+00  0.0000E+00  0.0000E+00  0.0000E+00  0.0000E+00
REACH    1        0     6  0.7646E+02  0.7679E-01  0.7975E-01  0.0000E+00  0.7679E-01  0.2715E-03  0.2715E-03  0.3939E-01  0.1917E-02  0.1588E-02  0.2680E-03  0.1923E-03  0.9752E+01  0.1013E+02  0.0000E+00  0.0000E+00  0.0000E+00  0.0000E+00  0.7128E-04  0.2221E-03  0.0000E+00  0.0000E+00  0.0000E+00  0.0000E+00  0.0000E+00  0.2067E-01  0.0000E+00  0.0000E+00  0.0000E+00  0.0000E+00  0.0000E+00  0.0000E+00  0.0000E+00  0.0000E+00  0.0000E+00  0.0000E+00  0.0000E+00  0.0000E+00  0.0000E+00  0.0000E+00  0.0000E+00  0.0000E+00  0.0000E+00
REACH    2        0     6  0.8510E+02  0.6450E-01  0.6754E-01  0.0000E+00  0.6450E-01  0.4529E-05  0.4529E-05  0.7761E-03  0.2556E-04  0.2133E-04  0.1917E-04  0.1387E-04  0.7667E+01  0.8029E+01  0.0000E+00  0.0000E+00  0.0000E+00  0.0000E+00  0.6365E-05  0.2000E-04  0.0000E+00  0.0000E+00  0.0000E+00  0.0000E+00  0.0000E+00  0.1751E-01  0.0000E+00  0.0000E+00  0.0000E+00  0.0000E+00  0.0000E+00  0.0000E+00  0.0000E+00  0.0000E+00  0.0000E+00  0.0000E+00  0.0000E+00  0.0000E+00  0.0000E+00  0.0000E+00  0.0000E+00  0.0000E+00  0.0000E+00
REACH    3        0     6  0.1958E+03  0.1636E+00  0.1614E+00  0.1813E-02  0.1489E+00  0.3140E-02  0.1276E+00  0.9149E+01  0.3319E-01  0.2610E-01  0.5372E-02  0.3660E-02  0.2207E+02  0.2177E+02  0.0000E+00  0.0000E+00  0.0000E+00  0.0000E+00  0.4989E-02  0.1476E-01  0.0000E+00  0.0000E+00  0.0000E+00  0.0000E+00  0.3818E-01  0.1129E+00  0.0000E+00  0.0000E+00  0.0000E+00  0.0000E+00  0.0000E+00  0.0000E+00  0.0000E+00  0.0000E+00  0.0000E+00  0.0000E+00  0.0000E+00  0.0000E+00  0.0000E+00  0.0000E+00  0.0000E+00  0.0000E+00  0.0000E+00
REACH    4        0     6  0.3629E+02  0.2641E-01  0.2617E-01  0.1846E-03  0.1515E-01  0.1193E-02  0.1193E-02  0.5275E+00  0.1654E-01  0.1307E-01  0.2678E-02  0.1834E-02  0.4561E+01  0.4521E+01  0.0000E+00  0.0000E+00  0.0000E+00  0.0000E+00  0.1518E-02  0.4513E-02  0.0000E+00  0.0000E+00  0.0000E+00  0.0000E+00  0.0000E+00  0.6784E-02  0.0000E+00  0.0000E+00  0.0000E+00  0.0000E+00  0.0000E+00  0.0000E+00  0.0000E+00  0.0000E+00  0.0000E+00  0.0000E+00  0.0000E+00  0.0000E+00  0.0000E+00  0.0000E+00  0.0000E+00  0.0000E+00  0.0000E+00
REACH    5        0     6  0.2911E+03  0.2047E+00  0.2170E+00  0.0000E+00  0.2047E+00  0.1323E+00  0.3311E+00  0.1766E+02  0.4179E-01  0.3532E-01  0.6206E-02  0.4547E-02  0.2897E+02  0.3072E+02  0.0000E+00  0.0000E+00  0.0000E+00  0.0000E+00  0.2026E-01  0.4360E-01  0.0000E+00  0.0000E+00  0.0000E+00  0.0000E+00  0.1197E+00  0.3808E+00  0.0000E+00  0.0000E+00  0.0000E+00  0.0000E+00  0.0000E+00  0.0000E+00  0.0000E+00  0.0000E+00  0.0000E+00  0.0000E+00  0.0000E+00  0.0000E+00  0.0000E+00  0.0000E+00  0.0000E+00  0.0000E+00  0.0000E+00
REACH    1        0     7  0.7646E+02  0.7209E-01  0.7483E-01  0.0000E+00  0.7209E-01  0.1255E-03  0.1255E-03  0.1941E-01  0.9378E-03  0.7483E-03  0.1327E-03  0.8891E-04  0.9192E+01  0.9542E+01  0.0000E+00  0.0000E+00  0.0000E+00  0.0000E+00  0.3376E-04  0.1051E-03  0.0000E+00  0.0000E+00  0.0000E+00  0.0000E+00  0.0000E+00  0.1940E-01  0.0000E+00  0.0000E+00  0.0000E+00  0.0000E+00  0.0000E+00  0.0000E+00  0.0000E+00  0.0000E+00  0.0000E+00  0.0000E+00  0.0000E+00  0.0000E+00  0.0000E+00  0.0000E+00  0.0000E+00  0.0000E+00  0.0000E+00
REACH    2        0     7  0.8510E+02  0.6021E-01  0.6283E-01  0.0000E+00  0.6021E-01  0.1401E-05  0.1401E-05  0.2581E-03  0.1141E-04  0.9152E-05  0.1907E-04  0.1285E-04  0.7108E+01  0.7418E+01  0.0000E+00  0.0000E+00  0.0000E+00  0.0000E+00  0.6365E-05  0.1993E-04  0.0000E+00  0.0000E+00  0.0000E+00  0.0000E+00  0.0000E+00  0.1628E-01  0.0000E+00  0.0000E+00  0.0000E+00  0.0000E+00  0.0000E+00  0.0000E+00  0.0000E+00  0.0000E+00  0.0000E+00  0.0000E+00  0.0000E+00  0.0000E+00  0.0000E+00  0.0000E+00  0.0000E+00  0.0000E+00  0.0000E+00
REACH    3        0     7  0.1958E+03  0.1522E+00  0.1489E+00  0.2742E-02  0.1489E+00  0.2449E-02  0.1173E+00  0.9123E+01  0.2637E-01  0.1983E-01  0.4294E-02  0.2712E-02  0.2028E+02  0.1984E+02  0.0000E+00  0.0000E+00  0.0000E+00  0.0000E+00  0.3965E-02  0.1164E-01  0.0000E+00  0.0000E+00  0.0000E+00  0.0000E+00  0.3568E-01  0.1047E+00  0.0000E+00  0.0000E+00  0.0000E+00  0.0000E+00  0.0000E+00  0.0000E+00  0.0000E+00  0.0000E+00  0.0000E+00  0.0000E+00  0.0000E+00  0.0000E+00  0.0000E+00  0.0000E+00  0.0000E+00  0.0000E+00  0.0000E+00
REACH    4        0     7  0.3629E+02  0.2337E-01  0.2303E-01  0.2792E-03  0.1515E-01  0.1010E-02  0.1010E-02  0.5077E+00  0.1401E-01  0.1061E-01  0.2270E-02  0.1444E-02  0.4054E+01  0.3994E+01  0.0000E+00  0.0000E+00  0.0000E+00  0.0000E+00  0.1286E-02  0.3801E-02  0.0000E+00  0.0000E+00  0.0000E+00  0.0000E+00  0.0000E+00  0.5968E-02  0.0000E+00  0.0000E+00  0.0000E+00  0.0000E+00  0.0000E+00  0.0000E+00  0.0000E+00  0.0000E+00  0.0000E+00  0.0000E+00  0.0000E+00  0.0000E+00  0.0000E+00  0.0000E+00  0.0000E+00  0.0000E+00  0.0000E+00
REACH    5        0     7  0.2911E+03  0.1861E+00  0.1973E+00  0.0000E+00  0.1861E+00  0.1202E+00  0.2913E+00  0.1709E+02  0.3181E-01  0.2592E-01  0.4530E-02  0.3100E-02  0.2611E+02  0.2768E+02  0.0000E+00  0.0000E+00  0.0000E+00  0.0000E+00  0.1596E-01  0.4164E-01  0.0000E+00  0.0000E+00  0.0000E+00  0.0000E+00  0.1107E+00  0.3520E+00  0.0000E+00  0.0000E+00  0.0000E+00  0.0000E+00  0.0000E+00  0.0000E+00  0.0000E+00  0.0000E+00  0.0000E+00  0.0000E+00  0.0000E+00  0.0000E+00  0.0000E+00  0.0000E+00  0.0000E+00  0.0000E+00  0.0000E+00
REACH    1        0     8  0.7646E+02  0.6789E-01  0.7030E-01  0.0000E+00  0.6789E-01  0.5872E-04  0.5872E-04  0.9668E-02  0.4596E-03  0.3657E-03  0.6944E-04  0.4638E-04  0.8687E+01  0.8996E+01  0.0000E+00  0.0000E+00  0.0000E+00  0.0000E+00  0.1641E-04  0.5099E-04  0.0000E+00  0.0000E+00  0.0000E+00  0.0000E+00  0.0000E+00  0.1822E-01  0.0000E+00  0.0000E+00  0.0000E+00  0.0000E+00  0.0000E+00  0.0000E+00  0.0000E+00  0.0000E+00  0.0000E+00  0.0000E+00  0.0000E+00  0.0000E+00  0.0000E+00  0.0000E+00  0.0000E+00  0.0000E+00  0.0000E+00
REACH    2        0     8  0.8510E+02  0.5641E-01  0.5863E-01  0.0000E+00  0.5641E-01  0.4467E-06  0.4467E-06  0.8819E-04  0.6431E-05  0.5135E-05  0.1907E-04  0.1279E-04  0.6619E+01  0.6880E+01  0.0000E+00  0.0000E+00  0.0000E+00  0.0000E+00  0.6365E-05  0.1985E-04  0.0000E+00  0.0000E+00  0.0000E+00  0.0000E+00  0.0000E+00  0.1520E-01  0.0000E+00  0.0000E+00  0.0000E+00  0.0000E+00  0.0000E+00  0.0000E+00  0.0000E+00  0.0000E+00  0.0000E+00  0.0000E+00  0.0000E+00  0.0000E+00  0.0000E+00  0.0000E+00  0.0000E+00  0.0000E+00  0.0000E+00
REACH    3        0     8  0.1958E+03  0.1419E+00  0.1439E+00  0.0000E+00  0.1419E+00  0.1942E-02  0.1132E+00  0.9100E+01  0.2115E-01  0.1649E-01  0.3462E-02  0.2265E-02  0.1871E+02  0.1898E+02  0.0000E+00  0.0000E+00  0.0000E+00  0.0000E+00  0.3179E-02  0.9674E-02  0.0000E+00  0.0000E+00  0.0000E+00  0.0000E+00  0.3342E-01  0.1017E+00  0.0000E+00  0.0000E+00  0.0000E+00  0.0000E+00  0.0000E+00  0.0000E+00  0.0000E+00  0.0000E+00  0.0000E+00  0.0000E+00  0.0000E+00  0.0000E+00  0.0000E+00  0.0000E+00  0.0000E+00  0.0000E+00  0.0000E+00
REACH    4        0     8  0.3629E+02  0.2075E-01  0.2037E-01  0.3317E-03  0.1507E-01  0.8554E-03  0.8554E-03  0.4860E+00  0.1187E-01  0.8951E-02  0.1924E-02  0.1218E-02  0.3616E+01  0.3550E+01  0.0000E+00  0.0000E+00  0.0000E+00  0.0000E+00  0.1089E-02  0.3209E-02  0.0000E+00  0.0000E+00  0.0000E+00  0.0000E+00  0.0000E+00  0.5281E-02  0.0000E+00  0.0000E+00  0.0000E+00  0.0000E+00  0.0000E+00  0.0000E+00  0.0000E+00  0.0000E+00  0.0000E+00  0.0000E+00  0.0000E+00  0.0000E+00  0.0000E+00  0.0000E+00  0.0000E+00  0.0000E+00  0.0000E+00
REACH    5        0     8  0.2911E+03  0.1762E+00  0.1834E+00  0.0000E+00  0.1762E+00  0.1150E+00  0.3014E+00  0.1902E+02  0.2615E-01  0.2091E-01  0.3681E-02  0.2471E-02  0.2448E+02  0.2548E+02  0.0000E+00  0.0000E+00  0.0000E+00  0.0000E+00  0.1315E-01  0.4107E-01  0.0000E+00  0.0000E+00  0.0000E+00  0.0000E+00  0.1070E+00  0.3341E+00  0.0000E+00  0.0000E+00  0.0000E+00  0.0000E+00  0.0000E+00  0.0000E+00  0.0000E+00  0.0000E+00  0.0000E+00  0.0000E+00  0.0000E+00  0.0000E+00  0.0000E+00  0.0000E+00  0.0000E+00  0.0000E+00  0.0000E+00
REACH    1        0     9  0.7646E+02  0.6410E-01  0.6634E-01  0.0000E+00  0.6410E-01  0.2776E-04  0.2776E-04  0.4843E-02  0.2257E-03  0.1776E-03  0.3952E-04  0.2586E-04  0.8227E+01  0.8514E+01  0.0000E+00  0.0000E+00  0.0000E+00  0.0000E+00  0.9130E-05  0.2835E-04  0.0000E+00  0.0000E+00  0.0000E+00  0.0000E+00  0.0000E+00  0.1720E-01  0.0000E+00  0.0000E+00  0.0000E+00  0.0000E+00  0.0000E+00  0.0000E+00  0.0000E+00  0.0000E+00  0.0000E+00  0.0000E+00  0.0000E+00  0.0000E+00  0.0000E+00  0.0000E+00  0.0000E+00  0.0000E+00  0.0000E+00
REACH    2        0     9  0.8510E+02  0.5302E-01  0.5503E-01  0.0000E+00  0.5302E-01  0.1479E-06  0.1479E-06  0.3110E-04  0.6357E-05  0.5016E-05  0.1907E-04  0.1251E-04  0.6188E+01  0.6423E+01  0.0000E+00  0.0000E+00  0.0000E+00  0.0000E+00  0.6365E-05  0.1982E-04  0.0000E+00  0.0000E+00  0.0000E+00  0.0000E+00  0.0000E+00  0.1426E-01  0.0000E+00  0.0000E+00  0.0000E+00  0.0000E+00  0.0000E+00  0.0000E+00  0.0000E+00  0.0000E+00  0.0000E+00  0.0000E+00  0.0000E+00  0.0000E+00  0.0000E+00  0.0000E+00  0.0000E+00  0.0000E+00  0.0000E+00
REACH    3        0     9  0.1958E+03  0.1330E+00  0.1370E+00  0.0000E+00  0.1330E+00  0.1554E-02  0.1078E+00  0.9106E+01  0.1704E-01  0.1334E-01  0.2800E-02  0.1824E-02  0.1736E+02  0.1788E+02  0.0000E+00  0.0000E+00  0.0000E+00  0.0000E+00  0.2563E-02  0.7921E-02  0.0000E+00  0.0000E+00  0.0000E+00  0.0000E+00  0.3146E-01  0.9721E-01  0.0000E+00  0.0000E+00  0.0000E+00  0.0000E+00  0.0000E+00  0.0000E+00  0.0000E+00  0.0000E+00  0.0000E+00  0.0000E+00  0.0000E+00  0.0000E+00  0.0000E+00  0.0000E+00  0.0000E+00  0.0000E+00  0.0000E+00
REACH    4        0     9  0.3629E+02  0.1849E-01  0.1824E-01  0.2056E-03  0.1507E-01  0.7244E-03  0.7244E-03  0.4597E+00  0.1005E-01  0.7535E-02  0.1631E-02  0.1017E-02  0.3237E+01  0.3193E+01  0.0000E+00  0.0000E+00  0.0000E+00  0.0000E+00  0.9231E-03  0.2731E-02  0.0000E+00  0.0000E+00  0.0000E+00  0.0000E+00  0.0000E+00  0.4727E-02  0.0000E+00  0.0000E+00  0.0000E+00  0.0000E+00  0.0000E+00  0.0000E+00  0.0000E+00  0.0000E+00  0.0000E+00  0.0000E+00  0.0000E+00  0.0000E+00  0.0000E+00  0.0000E+00  0.0000E+00  0.0000E+00  0.0000E+00
REACH    5        0     9  0.2911E+03  0.1652E+00  0.1717E+00  0.0000E+00  0.1652E+00  0.1090E+00  0.2782E+00  0.1875E+02  0.2125E-01  0.1678E-01  0.2946E-02  0.1935E-02  0.2276E+02  0.2365E+02  0.0000E+00  0.0000E+00  0.0000E+00  0.0000E+00  0.1079E-01  0.3364E-01  0.0000E+00  0.0000E+00  0.0000E+00  0.0000E+00  0.1019E+00  0.3177E+00  0.0000E+00  0.0000E+00  0.0000E+00  0.0000E+00  0.0000E+00  0.0000E+00  0.0000E+00  0.0000E+00  0.0000E+00  0.0000E+00  0.0000E+00  0.0000E+00  0.0000E+00  0.0000E+00  0.0000E+00  0.0000E+00  0.0000E+00
REACH    1        0    10  0.7646E+02  0.6067E-01  0.6263E-01  0.0000E+00  0.6067E-01  0.1324E-04  0.1324E-04  0.2446E-02  0.1118E-03  0.8811E-04  0.2544E-04  0.1673E-04  0.7807E+01  0.8059E+01  0.0000E+00  0.0000E+00  0.0000E+00  0.0000E+00  0.5792E-05  0.1794E-04  0.0000E+00  0.0000E+00  0.0000E+00  0.0000E+00  0.0000E+00  0.1623E-01  0.0000E+00  0.0000E+00  0.0000E+00  0.0000E+00  0.0000E+00  0.0000E+00  0.0000E+00  0.0000E+00  0.0000E+00  0.0000E+00  0.0000E+00  0.0000E+00  0.0000E+00  0.0000E+00  0.0000E+00  0.0000E+00  0.0000E+00
REACH    2        0    10  0.8510E+02  0.4998E-01  0.5186E-01  0.0000E+00  0.4998E-01  0.5200E-07  0.5200E-07  0.1160E-04  0.6357E-05  0.5034E-05  0.1907E-04  0.1260E-04  0.5806E+01  0.6024E+01  0.0000E+00  0.0000E+00  0.0000E+00  0.0000E+00  0.6365E-05  0.1981E-04  0.0000E+00  0.0000E+00  0.0000E+00  0.0000E+00  0.0000E+00  0.1344E-01  0.0000E+00  0.0000E+00  0.0000E+00  0.0000E+00  0.0000E+00  0.0000E+00  0.0000E+00  0.0000E+00  0.0000E+00  0.0000E+00  0.0000E+00  0.0000E+00  0.0000E+00  0.0000E+00  0.0000E+00  0.0000E+00  0.0000E+00
REACH    3        0    10  0.1958E+03  0.1246E+00  0.1293E+00  0.0000E+00  0.1246E+00  0.1251E-02  0.1015E+00  0.9091E+01  0.1377E-01  0.1091E-01  0.2272E-02  0.1502E-02  0.1617E+02  0.1678E+02  0.0000E+00  0.0000E+00  0.0000E+00  0.0000E+00  0.2074E-02  0.6457E-02  0.0000E+00  0.0000E+00  0.0000E+00  0.0000E+00  0.2968E-01  0.9240E-01  0.0000E+00  0.0000E+00  0.0000E+00  0.0000E+00  0.0000E+00  0.0000E+00  0.0000E+00  0.0000E+00  0.0000E+00  0.0000E+00  0.0000E+00  0.0000E+00  0.0000E+00  0.0000E+00  0.0000E+00  0.0000E+00  0.0000E+00
REACH    4        0    10  0.3629E+02  0.1636E-01  0.1623E-01  0.1035E-03  0.1507E-01  0.6135E-03  0.6135E-03  0.4376E+00  0.8511E-02  0.6441E-02  0.1382E-02  0.8730E-03  0.2910E+01  0.2885E+01  0.0000E+00  0.0000E+00  0.0000E+00  0.0000E+00  0.7822E-03  0.2327E-02  0.0000E+00  0.0000E+00  0.0000E+00  0.0000E+00  0.0000E+00  0.4206E-02  0.0000E+00  0.0000E+00  0.0000E+00  0.0000E+00  0.0000E+00  0.0000E+00  0.0000E+00  0.0000E+00  0.0000E+00  0.0000E+00  0.0000E+00  0.0000E+00  0.0000E+00  0.0000E+00  0.0000E+00  0.0000E+00  0.0000E+00
REACH    5        0    10  0.2911E+03  0.1540E+00  0.1606E+00  0.0000E+00  0.1540E+00  0.1024E+00  0.2553E+00  0.1840E+02  0.1754E-01  0.1396E-01  0.2433E-02  0.1616E-02  0.2114E+02  0.2204E+02  0.0000E+00  0.0000E+00  0.0000E+00  0.0000E+00  0.8859E-02  0.2771E-01  0.0000E+00  0.0000E+00  0.0000E+00  0.0000E+00  0.9660E-01  0.3022E+00  0.0000E+00  0.0000E+00  0.0000E+00  0.0000E+00  0.0000E+00  0.0000E+00  0.0000E+00  0.0000E+00  0.0000E+00  0.0000E+00  0.0000E+00  0.0000E+00  0.0000E+00  0.0000E+00  0.0000E+00  0.0000E+00  0.0000E+00
REACH    1        0    11  0.7646E+02  0.5753E-01  0.5922E-01  0.0000E+00  0.5753E-01  0.6354E-05  0.6354E-05  0.1242E-02  0.5632E-04  0.4299E-04  0.1852E-04  0.1149E-04  0.7420E+01  0.7637E+01  0.0000E+00  0.0000E+00  0.0000E+00  0.0000E+00  0.4638E-05  0.0000E+00  0.0000E+00  0.0000E+00  0.0000E+00  0.0000E+00  0.0000E+00  0.1535E-01  0.0000E+00  0.0000E+00  0.0000E+00  0.0000E+00  0.0000E+00  0.0000E+00  0.0000E+00  0.0000E+00  0.0000E+00  0.0000E+00  0.0000E+00  0.0000E+00  0.0000E+00  0.0000E+00  0.0000E+00  0.0000E+00  0.0000E+00
REACH    2        0    11  0.8510E+02  0.4723E-01  0.4875E-01  0.0000E+00  0.4723E-01  0.2060E-07  0.2060E-07  0.4891E-05  0.6357E-05  0.4865E-05  0.1907E-04  0.1186E-04  0.5464E+01  0.5639E+01  0.0000E+00  0.0000E+00  0.0000E+00  0.0000E+00  0.6365E-05  0.1971E-04  0.0000E+00  0.0000E+00  0.0000E+00  0.0000E+00  0.0000E+00  0.1264E-01  0.0000E+00  0.0000E+00  0.0000E+00  0.0000E+00  0.0000E+00  0.0000E+00  0.0000E+00  0.0000E+00  0.0000E+00  0.0000E+00  0.0000E+00  0.0000E+00  0.0000E+00  0.0000E+00  0.0000E+00  0.0000E+00  0.0000E+00
REACH    3        0    11  0.1958E+03  0.1175E+00  0.1216E+00  0.0000E+00  0.1175E+00  0.1010E-02  0.9543E-01  0.9079E+01  0.1114E-01  0.8554E-02  0.1845E-02  0.1151E-02  0.1508E+02  0.1561E+02  0.0000E+00  0.0000E+00  0.0000E+00  0.0000E+00  0.1668E-02  0.5180E-02  0.0000E+00  0.0000E+00  0.0000E+00  0.0000E+00  0.2798E-01  0.8689E-01  0.0000E+00  0.0000E+00  0.0000E+00  0.0000E+00  0.0000E+00  0.0000E+00  0.0000E+00  0.0000E+00  0.0000E+00  0.0000E+00  0.0000E+00  0.0000E+00  0.0000E+00  0.0000E+00  0.0000E+00  0.0000E+00  0.0000E+00
REACH    4        0    11  0.3629E+02  0.1485E-01  0.1487E-01  0.0000E+00  0.1485E-01  0.5196E-03  0.5196E-03  0.4043E+00  0.7208E-02  0.5353E-02  0.1172E-02  0.7073E-03  0.2625E+01  0.2629E+01  0.0000E+00  0.0000E+00  0.0000E+00  0.0000E+00  0.6629E-03  0.1991E-02  0.0000E+00  0.0000E+00  0.0000E+00  0.0000E+00  0.0000E+00  0.3855E-02  0.0000E+00  0.0000E+00  0.0000E+00  0.0000E+00  0.0000E+00  0.0000E+00  0.0000E+00  0.0000E+00  0.0000E+00  0.0000E+00  0.0000E+00  0.0000E+00  0.0000E+00  0.0000E+00  0.0000E+00  0.0000E+00  0.0000E+00
REACH    5        0    11  0.2911E+03  0.1438E+00  0.1493E+00  0.0000E+00  0.1438E+00  0.9608E-01  0.2327E+00  0.1804E+02  0.1401E-01  0.1079E-01  0.1891E-02  0.1183E-02  0.1953E+02  0.2028E+02  0.0000E+00  0.0000E+00  0.0000E+00  0.0000E+00  0.7212E-02  0.2246E-01  0.0000E+00  0.0000E+00  0.0000E+00  0.0000E+00  0.9075E-01  0.2826E+00  0.0000E+00  0.0000E+00  0.0000E+00  0.0000E+00  0.0000E+00  0.0000E+00  0.0000E+00  0.0000E+00  0.0000E+00  0.0000E+00  0.0000E+00  0.0000E+00  0.0000E+00  0.0000E+00  0.0000E+00  0.0000E+00  0.0000E+00
REACH    1        0    12  0.7646E+02  0.5465E-01  0.5620E-01  0.0000E+00  0.5465E-01  0.3069E-05  0.3069E-05  0.6319E-03  0.2901E-04  0.2222E-04  0.1511E-04  0.9445E-05  0.7061E+01  0.7262E+01  0.0000E+00  0.0000E+00  0.0000E+00  0.0000E+00  0.4638E-05  0.0000E+00  0.0000E+00  0.0000E+00  0.0000E+00  0.0000E+00  0.0000E+00  0.1457E-01  0.0000E+00  0.0000E+00  0.0000E+00  0.0000E+00  0.0000E+00  0.0000E+00  0.0000E+00  0.0000E+00  0.0000E+00  0.0000E+00  0.0000E+00  0.0000E+00  0.0000E+00  0.0000E+00  0.0000E+00  0.0000E+00  0.0000E+00
REACH    2        0    12  0.8510E+02  0.4473E-01  0.4608E-01  0.0000E+00  0.4473E-01  0.1039E-07  0.1039E-07  0.2611E-05  0.6357E-05  0.4877E-05  0.1907E-04  0.1194E-04  0.5156E+01  0.5311E+01  0.0000E+00  0.0000E+00  0.0000E+00  0.0000E+00  0.6365E-05  0.1967E-04  0.0000E+00  0.0000E+00  0.0000E+00  0.0000E+00  0.0000E+00  0.1194E-01  0.0000E+00  0.0000E+00  0.0000E+00  0.0000E+00  0.0000E+00  0.0000E+00  0.0000E+00  0.0000E+00  0.0000E+00  0.0000E+00  0.0000E+00  0.0000E+00  0.0000E+00  0.0000E+00  0.0000E+00  0.0000E+00  0.0000E+00
REACH    3        0    12  0.1958E+03  0.1110E+00  0.1148E+00  0.0000E+00  0.1110E+00  0.8170E-03  0.8997E-01  0.9069E+01  0.9032E-02  0.6957E-02  0.1501E-02  0.9435E-03  0.1415E+02  0.1463E+02  0.0000E+00  0.0000E+00  0.0000E+00  0.0000E+00  0.1355E-02  0.4203E-02  0.0000E+00  0.0000E+00  0.0000E+00  0.0000E+00  0.2651E-01  0.8225E-01  0.0000E+00  0.0000E+00  0.0000E+00  0.0000E+00  0.0000E+00  0.0000E+00  0.0000E+00  0.0000E+00  0.0000E+00  0.0000E+00  0.0000E+00  0.0000E+00  0.0000E+00  0.0000E+00  0.0000E+00  0.0000E+00  0.0000E+00
REACH    4        0    12  0.3629E+02  0.1339E-01  0.1393E-01  0.0000E+00  0.1339E-01  0.4400E-03  0.4400E-03  0.3656E+00  0.6105E-02  0.4731E-02  0.9941E-03  0.6286E-03  0.2378E+01  0.2474E+01  0.0000E+00  0.0000E+00  0.0000E+00  0.0000E+00  0.5619E-03  0.1754E-02  0.0000E+00  0.0000E+00  0.0000E+00  0.0000E+00  0.0000E+00  0.3610E-02  0.0000E+00  0.0000E+00  0.0000E+00  0.0000E+00  0.0000E+00  0.0000E+00  0.0000E+00  0.0000E+00  0.0000E+00  0.0000E+00  0.0000E+00  0.0000E+00  0.0000E+00  0.0000E+00  0.0000E+00  0.0000E+00  0.0000E+00
REACH    5        0    12  0.2911E+03  0.1350E+00  0.1397E+00  0.0000E+00  0.1350E+00  0.9048E-01  0.2134E+00  0.1768E+02  0.1174E-01  0.9055E-02  0.1592E-02  0.1002E-02  0.1825E+02  0.1889E+02  0.0000E+00  0.0000E+00  0.0000E+00  0.0000E+00  0.5979E-02  0.1857E-01  0.0000E+00  0.0000E+00  0.0000E+00  0.0000E+00  0.8586E-01  0.2667E+00  0.0000E+00  0.0000E+00  0.0000E+00  0.0000E+00  0.0000E+00  0.0000E+00  0.0000E+00  0.0000E+00  0.0000E+00  0.0000E+00  0.0000E+00  0.0000E+00  0.0000E+00  0.0000E+00  0.0000E+00  0.0000E+00  0.0000E+00
REACH    1        0    13  0.7646E+02  0.5199E-01  0.5337E-01  0.0000E+00  0.5199E-01  0.1489E-05  0.1489E-05  0.3230E-03  0.1557E-04  0.1274E-04  0.1389E-04  0.9854E-05  0.6729E+01  0.6908E+01  0.0000E+00  0.0000E+00  0.0000E+00  0.0000E+00  0.4638E-05  0.1428E-04  0.0000E+00  0.0000E+00  0.0000E+00  0.0000E+00  0.0000E+00  0.1383E-01  0.0000E+00  0.0000E+00  0.0000E+00  0.0000E+00  0.0000E+00  0.0000E+00  0.0000E+00  0.0000E+00  0.0000E+00  0.0000E+00  0.0000E+00  0.0000E+00  0.0000E+00  0.0000E+00  0.0000E+00  0.0000E+00  0.0000E+00
REACH    2        0    13  0.8510E+02  0.4244E-01  0.4361E-01  0.0000E+00  0.4244E-01  0.7234E-08  0.7234E-08  0.1920E-05  0.6357E-05  0.5207E-05  0.1907E-04  0.1354E-04  0.4877E+01  0.5011E+01  0.0000E+00  0.0000E+00  0.0000E+00  0.0000E+00  0.6365E-05  0.1962E-04  0.0000E+00  0.0000E+00  0.0000E+00  0.0000E+00  0.0000E+00  0.1130E-01  0.0000E+00  0.0000E+00  0.0000E+00  0.0000E+00  0.0000E+00  0.0000E+00  0.0000E+00  0.0000E+00  0.0000E+00  0.0000E+00  0.0000E+00  0.0000E+00  0.0000E+00  0.0000E+00  0.0000E+00  0.0000E+00  0.0000E+00
REACH    3        0    13  0.1958E+03  0.1050E+00  0.1084E+00  0.0000E+00  0.1050E+00  0.6617E-03  0.8489E-01  0.9061E+01  0.7326E-02  0.6031E-02  0.1226E-02  0.8748E-03  0.1330E+02  0.1373E+02  0.0000E+00  0.0000E+00  0.0000E+00  0.0000E+00  0.1115E-02  0.3456E-02  0.0000E+00  0.0000E+00  0.0000E+00  0.0000E+00  0.2514E-01  0.7787E-01  0.0000E+00  0.0000E+00  0.0000E+00  0.0000E+00  0.0000E+00  0.0000E+00  0.0000E+00  0.0000E+00  0.0000E+00  0.0000E+00  0.0000E+00  0.0000E+00  0.0000E+00  0.0000E+00  0.0000E+00  0.0000E+00  0.0000E+00
REACH    4        0    13  0.3629E+02  0.1211E-01  0.1278E-01  0.0000E+00  0.1211E-01  0.3726E-03  0.3726E-03  0.3375E+00  0.5171E-02  0.4349E-02  0.8434E-03  0.6147E-03  0.2162E+01  0.2281E+01  0.0000E+00  0.0000E+00  0.0000E+00  0.0000E+00  0.4764E-03  0.1508E-02  0.0000E+00  0.0000E+00  0.0000E+00  0.0000E+00  0.0000E+00  0.3312E-02  0.0000E+00  0.0000E+00  0.0000E+00  0.0000E+00  0.0000E+00  0.0000E+00  0.0000E+00  0.0000E+00  0.0000E+00  0.0000E+00  0.0000E+00  0.0000E+00  0.0000E+00  0.0000E+00  0.0000E+00  0.0000E+00  0.0000E+00
REACH    5        0    13  0.2911E+03  0.1266E+00  0.1308E+00  0.0000E+00  0.1266E+00  0.8530E-01  0.1953E+00  0.1728E+02  0.1041E-01  0.8573E-02  0.1503E-02  0.1073E-02  0.1703E+02  0.1760E+02  0.0000E+00  0.0000E+00  0.0000E+00  0.0000E+00  0.4975E-02  0.1542E-01  0.0000E+00  0.0000E+00  0.0000E+00  0.0000E+00  0.8118E-01  0.2516E+00  0.0000E+00  0.0000E+00  0.0000E+00  0.0000E+00  0.0000E+00  0.0000E+00  0.0000E+00  0.0000E+00  0.0000E+00  0.0000E+00  0.0000E+00  0.0000E+00  0.0000E+00  0.0000E+00  0.0000E+00  0.0000E+00  0.0000E+00
REACH    1        0    14  0.7646E+02  0.4952E-01  0.5083E-01  0.0000E+00  0.4952E-01  0.7263E-06  0.7263E-06  0.1654E-03  0.8956E-05  0.7497E-05  0.1389E-04  0.1026E-04  0.6418E+01  0.6588E+01  0.0000E+00  0.0000E+00  0.0000E+00  0.0000E+00  0.4638E-05  0.1428E-04  0.0000E+00  0.0000E+00  0.0000E+00  0.0000E+00  0.0000E+00  0.1318E-01  0.0000E+00  0.0000E+00  0.0000E+00  0.0000E+00  0.0000E+00  0.0000E+00  0.0000E+00  0.0000E+00  0.0000E+00  0.0000E+00  0.0000E+00  0.0000E+00  0.0000E+00  0.0000E+00  0.0000E+00  0.0000E+00  0.0000E+00
REACH    2        0    14  0.8510E+02  0.4034E-01  0.4143E-01  0.0000E+00  0.4034E-01  0.6167E-08  0.6167E-08  0.1723E-05  0.6357E-05  0.5324E-05  0.1907E-04  0.1410E-04  0.4622E+01  0.4748E+01  0.0000E+00  0.0000E+00  0.0000E+00  0.0000E+00  0.6365E-05  0.1961E-04  0.0000E+00  0.0000E+00  0.0000E+00  0.0000E+00  0.0000E+00  0.1074E-01  0.0000E+00  0.0000E+00  0.0000E+00  0.0000E+00  0.0000E+00  0.0000E+00  0.0000E+00  0.0000E+00  0.0000E+00  0.0000E+00  0.0000E+00  0.0000E+00  0.0000E+00  0.0000E+00  0.0000E+00  0.0000E+00  0.0000E+00
REACH    3        0    14  0.1958E+03  0.9969E-01  0.1028E+00  0.0000E+00  0.9969E-01  0.5363E-03  0.8043E-01  0.9054E+01  0.5945E-02  0.4999E-02  0.1002E-02  0.7440E-03  0.1255E+02  0.1294E+02  0.0000E+00  0.0000E+00  0.0000E+00  0.0000E+00  0.9103E-03  0.2816E-02  0.0000E+00  0.0000E+00  0.0000E+00  0.0000E+00  0.2392E-01  0.7400E-01  0.0000E+00  0.0000E+00  0.0000E+00  0.0000E+00  0.0000E+00  0.0000E+00  0.0000E+00  0.0000E+00  0.0000E+00  0.0000E+00  0.0000E+00  0.0000E+00  0.0000E+00  0.0000E+00  0.0000E+00  0.0000E+00  0.0000E+00
REACH    4        0    14  0.3629E+02  0.1100E-01  0.1166E-01  0.0000E+00  0.1100E-01  0.3156E-03  0.3156E-03  0.3132E+00  0.4380E-02  0.3786E-02  0.7157E-03  0.5461E-03  0.1973E+01  0.2092E+01  0.0000E+00  0.0000E+00  0.0000E+00  0.0000E+00  0.4039E-03  0.1285E-02  0.0000E+00  0.0000E+00  0.0000E+00  0.0000E+00  0.0000E+00  0.3023E-02  0.0000E+00  0.0000E+00  0.0000E+00  0.0000E+00  0.0000E+00  0.0000E+00  0.0000E+00  0.0000E+00  0.0000E+00  0.0000E+00  0.0000E+00  0.0000E+00  0.0000E+00  0.0000E+00  0.0000E+00  0.0000E+00  0.0000E+00
REACH    5        0    14  0.2911E+03  0.1192E+00  0.1230E+00  0.0000E+00  0.1192E+00  0.8076E-01  0.1794E+00  0.1687E+02  0.8802E-02  0.7411E-02  0.1301E-02  0.9671E-03  0.1595E+02  0.1647E+02  0.0000E+00  0.0000E+00  0.0000E+00  0.0000E+00  0.4108E-02  0.1273E-01  0.0000E+00  0.0000E+00  0.0000E+00  0.0000E+00  0.7702E-01  0.2386E+00  0.0000E+00  0.0000E+00  0.0000E+00  0.0000E+00  0.0000E+00  0.0000E+00  0.0000E+00  0.0000E+00  0.0000E+00  0.0000E+00  0.0000E+00  0.0000E+00  0.0000E+00  0.0000E+00  0.0000E+00  0.0000E+00  0.0000E+00
REACH    1        0    15  0.7646E+02  0.4721E-01  0.4839E-01  0.0000E+00  0.4721E-01  0.3561E-06  0.3561E-06  0.8519E-04  0.5703E-05  0.4757E-05  0.1389E-04  0.1021E-04  0.6127E+01  0.6279E+01  0.0000E+00  0.0000E+00  0.0000E+00  0.0000E+00  0.4638E-05  0.1426E-04  0.0000E+00  0.0000E+00  0.0000E+00  0.0000E+00  0.0000E+00  0.1254E-01  0.0000E+00  0.0000E+00  0.0000E+00  0.0000E+00  0.0000E+00  0.0000E+00  0.0000E+00  0.0000E+00  0.0000E+00  0.0000E+00  0.0000E+00  0.0000E+00  0.0000E+00  0.0000E+00  0.0000E+00  0.0000E+00  0.0000E+00
REACH    2        0    15  0.8510E+02  0.3839E-01  0.3935E-01  0.0000E+00  0.3839E-01  0.6167E-08  0.6167E-08  0.1814E-05  0.6357E-05  0.5303E-05  0.1907E-04  0.1402E-04  0.4389E+01  0.4498E+01  0.0000E+00  0.0000E+00  0.0000E+00  0.0000E+00  0.6365E-05  0.1957E-04  0.0000E+00  0.0000E+00  0.0000E+00  0.0000E+00  0.0000E+00  0.1020E-01  0.0000E+00  0.0000E+00  0.0000E+00  0.0000E+00  0.0000E+00  0.0000E+00  0.0000E+00  0.0000E+00  0.0000E+00  0.0000E+00  0.0000E+00  0.0000E+00  0.0000E+00  0.0000E+00  0.0000E+00  0.0000E+00  0.0000E+00
REACH    3        0    15  0.1958E+03  0.9462E-01  0.9745E-01  0.0000E+00  0.9462E-01  0.4349E-03  0.7618E-01  0.9048E+01  0.4825E-02  0.4045E-02  0.8197E-03  0.6057E-03  0.1185E+02  0.1221E+02  0.0000E+00  0.0000E+00  0.0000E+00  0.0000E+00  0.7441E-03  0.2299E-02  0.0000E+00  0.0000E+00  0.0000E+00  0.0000E+00  0.2274E-01  0.7026E-01  0.0000E+00  0.0000E+00  0.0000E+00  0.0000E+00  0.0000E+00  0.0000E+00  0.0000E+00  0.0000E+00  0.0000E+00  0.0000E+00  0.0000E+00  0.0000E+00  0.0000E+00  0.0000E+00  0.0000E+00  0.0000E+00  0.0000E+00
REACH    4        0    15  0.3629E+02  0.1003E-01  0.1063E-01  0.0000E+00  0.1003E-01  0.2673E-03  0.2673E-03  0.2911E+00  0.3709E-02  0.3200E-02  0.6076E-03  0.4619E-03  0.1808E+01  0.1915E+01  0.0000E+00  0.0000E+00  0.0000E+00  0.0000E+00  0.3425E-03  0.1089E-02  0.0000E+00  0.0000E+00  0.0000E+00  0.0000E+00  0.0000E+00  0.2754E-02  0.0000E+00  0.0000E+00  0.0000E+00  0.0000E+00  0.0000E+00  0.0000E+00  0.0000E+00  0.0000E+00  0.0000E+00  0.0000E+00  0.0000E+00  0.0000E+00  0.0000E+00  0.0000E+00  0.0000E+00  0.0000E+00  0.0000E+00
REACH    5        0    15  0.2911E+03  0.1122E+00  0.1156E+00  0.0000E+00  0.1122E+00  0.7646E-01  0.1641E+00  0.1644E+02  0.7254E-02  0.6083E-02  0.1078E-02  0.7972E-03  0.1495E+02  0.1540E+02  0.0000E+00  0.0000E+00  0.0000E+00  0.0000E+00  0.3393E-02  0.1049E-01  0.0000E+00  0.0000E+00  0.0000E+00  0.0000E+00  0.7302E-01  0.2257E+00  0.0000E+00  0.0000E+00  0.0000E+00  0.0000E+00  0.0000E+00  0.0000E+00  0.0000E+00  0.0000E+00  0.0000E+00  0.0000E+00  0.0000E+00  0.0000E+00  0.0000E+00  0.0000E+00  0.0000E+00  0.0000E+00  0.0000E+00
REACH    1        0    16  0.7646E+02  0.4506E-01  0.4613E-01  0.0000E+00  0.4506E-01  0.1760E-06  0.1760E-06  0.4415E-04  0.4631E-05  0.0000E+00  0.1389E-04  0.1022E-04  0.5853E+01  0.5992E+01  0.0000E+00  0.0000E+00  0.0000E+00  0.0000E+00  0.4638E-05  0.1424E-04  0.0000E+00  0.0000E+00  0.0000E+00  0.0000E+00  0.0000E+00  0.1196E-01  0.0000E+00  0.0000E+00  0.0000E+00  0.0000E+00  0.0000E+00  0.0000E+00  0.0000E+00  0.0000E+00  0.0000E+00  0.0000E+00  0.0000E+00  0.0000E+00  0.0000E+00  0.0000E+00  0.0000E+00  0.0000E+00  0.0000E+00
REACH    2        0    16  0.8510E+02  0.3658E-01  0.3744E-01  0.0000E+00  0.3658E-01  0.6167E-08  0.6167E-08  0.1906E-05  0.6357E-05  0.5301E-05  0.1907E-04  0.1403E-04  0.4173E+01  0.4271E+01  0.0000E+00  0.0000E+00  0.0000E+00  0.0000E+00  0.6365E-05  0.1954E-04  0.0000E+00  0.0000E+00  0.0000E+00  0.0000E+00  0.0000E+00  0.9704E-02  0.0000E+00  0.0000E+00  0.0000E+00  0.0000E+00  0.0000E+00  0.0000E+00  0.0000E+00  0.0000E+00  0.0000E+00  0.0000E+00  0.0000E+00  0.0000E+00  0.0000E+00  0.0000E+00  0.0000E+00  0.0000E+00  0.0000E+00
REACH    3        0    16  0.1958E+03  0.8998E-01  0.9255E-01  0.0000E+00  0.8998E-01  0.3528E-03  0.7231E-01  0.9043E+01  0.3915E-02  0.3281E-02  0.6716E-03  0.4966E-03  0.1122E+02  0.1154E+02  0.0000E+00  0.0000E+00  0.0000E+00  0.0000E+00  0.6096E-03  0.1881E-02  0.0000E+00  0.0000E+00  0.0000E+00  0.0000E+00  0.2166E-01  0.6683E-01  0.0000E+00  0.0000E+00  0.0000E+00  0.0000E+00  0.0000E+00  0.0000E+00  0.0000E+00  0.0000E+00  0.0000E+00  0.0000E+00  0.0000E+00  0.0000E+00  0.0000E+00  0.0000E+00  0.0000E+00  0.0000E+00  0.0000E+00
REACH    4        0    16  0.3629E+02  0.9174E-02  0.9703E-02  0.0000E+00  0.9174E-02  0.2263E-03  0.2263E-03  0.2700E+00  0.3142E-02  0.0000E+00  0.5160E-03  0.0000E+00  0.1662E+01  0.0000E+00  0.0000E+00  0.0000E+00  0.0000E+00  0.0000E+00  0.2906E-03  0.0000E+00  0.0000E+00  0.0000E+00  0.0000E+00  0.0000E+00  0.0000E+00  0.0000E+00  0.0000E+00  0.0000E+00  0.0000E+00  0.0000E+00  0.0000E+00  0.0000E+00  0.0000E+00  0.0000E+00  0.0000E+00  0.0000E+00  0.0000E+00  0.0000E+00  0.0000E+00  0.0000E+00  0.0000E+00  0.0000E+00  0.0000E+00
REACH    5        0    16  0.2911E+03  0.1059E+00  0.1089E+00  0.0000E+00  0.1059E+00  0.7254E-01  0.1472E+00  0.1565E+02  0.3286E-02  0.2753E-02  0.5074E-03  0.3750E-03  0.1229E+02  0.1264E+02  0.0000E+00  0.0000E+00  0.0000E+00  0.0000E+00  0.1885E-02  0.5813E-02  0.0000E+00  0.0000E+00  0.0000E+00  0.0000E+00  0.6683E-01  0.2061E+00  0.0000E+00  0.0000E+00  0.0000E+00  0.0000E+00  0.0000E+00  0.0000E+00  0.0000E+00  0.0000E+00  0.0000E+00  0.0000E+00  0.0000E+00  0.0000E+00  0.0000E+00  0.0000E+00  0.0000E+00  0.0000E+00  0.0000E+00
REACH    1        0    17  0.7646E+02  0.4304E-01  0.4408E-01  0.0000E+00  0.4304E-01  0.8807E-07  0.8807E-07  0.2313E-04  0.4631E-05  0.3897E-05  0.1389E-04  0.1038E-04  0.5595E+01  0.5730E+01  0.0000E+00  0.0000E+00  0.0000E+00  0.0000E+00  0.4638E-05  0.1425E-04  0.0000E+00  0.0000E+00  0.0000E+00  0.0000E+00  0.0000E+00  0.1142E-01  0.0000E+00  0.0000E+00  0.0000E+00  0.0000E+00  0.0000E+00  0.0000E+00  0.0000E+00  0.0000E+00  0.0000E+00  0.0000E+00  0.0000E+00  0.0000E+00  0.0000E+00  0.0000E+00  0.0000E+00  0.0000E+00  0.0000E+00
REACH    2        0    17  0.8510E+02  0.3489E-01  0.3572E-01  0.0000E+00  0.3489E-01  0.6167E-08  0.6167E-08  0.1998E-05  0.6357E-05  0.5349E-05  0.1907E-04  0.1425E-04  0.3974E+01  0.4069E+01  0.0000E+00  0.0000E+00  0.0000E+00  0.0000E+00  0.6365E-05  0.1955E-04  0.0000E+00  0.0000E+00  0.0000E+00  0.0000E+00  0.0000E+00  0.9259E-02  0.0000E+00  0.0000E+00  0.0000E+00  0.0000E+00  0.0000E+00  0.0000E+00  0.0000E+00  0.0000E+00  0.0000E+00  0.0000E+00  0.0000E+00  0.0000E+00  0.0000E+00  0.0000E+00  0.0000E+00  0.0000E+00  0.0000E+00
REACH    3        0    17  0.1958E+03  0.8580E-01  0.8818E-01  0.0000E+00  0.8580E-01  0.2862E-03  0.6886E-01  0.9039E+01  0.3184E-02  0.2689E-02  0.5519E-03  0.4140E-03  0.1066E+02  0.1096E+02  0.0000E+00  0.0000E+00  0.0000E+00  0.0000E+00  0.5008E-03  0.1544E-02  0.0000E+00  0.0000E+00  0.0000E+00  0.0000E+00  0.2068E-01  0.6377E-01  0.0000E+00  0.0000E+00  0.0000E+00  0.0000E+00  0.0000E+00  0.0000E+00  0.0000E+00  0.0000E+00  0.0000E+00  0.0000E+00  0.0000E+00  0.0000E+00  0.0000E+00  0.0000E+00  0.0000E+00  0.0000E+00  0.0000E+00
REACH    4        0    17  0.3629E+02  0.8424E-02  0.8895E-02  0.0000E+00  0.8424E-02  0.1917E-03  0.1917E-03  0.2494E+00  0.2661E-02  0.0000E+00  0.4385E-03  0.0000E+00  0.1533E+01  0.0000E+00  0.0000E+00  0.0000E+00  0.0000E+00  0.0000E+00  0.2466E-03  0.0000E+00  0.0000E+00  0.0000E+00  0.0000E+00  0.0000E+00  0.0000E+00  0.0000E+00  0.0000E+00  0.0000E+00  0.0000E+00  0.0000E+00  0.0000E+00  0.0000E+00  0.0000E+00  0.0000E+00  0.0000E+00  0.0000E+00  0.0000E+00  0.0000E+00  0.0000E+00  0.0000E+00  0.0000E+00  0.0000E+00  0.0000E+00
REACH    5        0    17  0.2911E+03  0.1003E+00  0.1030E+00  0.0000E+00  0.1003E+00  0.6905E-01  0.1320E+00  0.1483E+02  0.2693E-02  0.2274E-02  0.4248E-03  0.3185E-03  0.1164E+02  0.1196E+02  0.0000E+00  0.0000E+00  0.0000E+00  0.0000E+00  0.1548E-02  0.4771E-02  0.0000E+00  0.0000E+00  0.0000E+00  0.0000E+00  0.6377E-01  0.1966E+00  0.0000E+00  0.0000E+00  0.0000E+00  0.0000E+00  0.0000E+00  0.0000E+00  0.0000E+00  0.0000E+00  0.0000E+00  0.0000E+00  0.0000E+00  0.0000E+00  0.0000E+00  0.0000E+00  0.0000E+00  0.0000E+00  0.0000E+00
REACH    1        0    18  0.7646E+02  0.4113E-01  0.4210E-01  0.0000E+00  0.4113E-01  0.4519E-07  0.4519E-07  0.1242E-04  0.4631E-05  0.3875E-05  0.1389E-04  0.1028E-04  0.5352E+01  0.5477E+01  0.0000E+00  0.0000E+00  0.0000E+00  0.0000E+00  0.4638E-05  0.1424E-04  0.0000E+00  0.0000E+00  0.0000E+00  0.0000E+00  0.0000E+00  0.1091E-01  0.0000E+00  0.0000E+00  0.0000E+00  0.0000E+00  0.0000E+00  0.0000E+00  0.0000E+00  0.0000E+00  0.0000E+00  0.0000E+00  0.0000E+00  0.0000E+00  0.0000E+00  0.0000E+00  0.0000E+00  0.0000E+00  0.0000E+00
REACH    2        0    18  0.8510E+02  0.3331E-01  0.3407E-01  0.0000E+00  0.3331E-01  0.6167E-08  0.6167E-08  0.2095E-05  0.6357E-05  0.5317E-05  0.1907E-04  0.1411E-04  0.3788E+01  0.3875E+01  0.0000E+00  0.0000E+00  0.0000E+00  0.0000E+00  0.6365E-05  0.1954E-04  0.0000E+00  0.0000E+00  0.0000E+00  0.0000E+00  0.0000E+00  0.8832E-02  0.0000E+00  0.0000E+00  0.0000E+00  0.0000E+00  0.0000E+00  0.0000E+00  0.0000E+00  0.0000E+00  0.0000E+00  0.0000E+00  0.0000E+00  0.0000E+00  0.0000E+00  0.0000E+00  0.0000E+00  0.0000E+00  0.0000E+00
REACH    3        0    18  0.1958E+03  0.8180E-01  0.8401E-01  0.0000E+00  0.8180E-01  0.2323E-03  0.6558E-01  0.9035E+01  0.2587E-02  0.2172E-02  0.4541E-03  0.3373E-03  0.1013E+02  0.1040E+02  0.0000E+00  0.0000E+00  0.0000E+00  0.0000E+00  0.4127E-03  0.1271E-02  0.0000E+00  0.0000E+00  0.0000E+00  0.0000E+00  0.1974E-01  0.6083E-01  0.0000E+00  0.0000E+00  0.0000E+00  0.0000E+00  0.0000E+00  0.0000E+00  0.0000E+00  0.0000E+00  0.0000E+00  0.0000E+00  0.0000E+00  0.0000E+00  0.0000E+00  0.0000E+00  0.0000E+00  0.0000E+00  0.0000E+00
REACH    4        0    18  0.3629E+02  0.7762E-02  0.8174E-02  0.0000E+00  0.7762E-02  0.1623E-03  0.1623E-03  0.2299E+00  0.2254E-02  0.0000E+00  0.3728E-03  0.0000E+00  0.1419E+01  0.0000E+00  0.0000E+00  0.0000E+00  0.0000E+00  0.0000E+00  0.2093E-03  0.0000E+00  0.0000E+00  0.0000E+00  0.0000E+00  0.0000E+00  0.0000E+00  0.0000E+00  0.0000E+00  0.0000E+00  0.0000E+00  0.0000E+00  0.0000E+00  0.0000E+00  0.0000E+00  0.0000E+00  0.0000E+00  0.0000E+00  0.0000E+00  0.0000E+00  0.0000E+00  0.0000E+00  0.0000E+00  0.0000E+00  0.0000E+00
REACH    5        0    18  0.2911E+03  0.9506E-01  0.9754E-01  0.0000E+00  0.9506E-01  0.6575E-01  0.1184E+00  0.1405E+02  0.2176E-02  0.1826E-02  0.3482E-03  0.2584E-03  0.1103E+02  0.1132E+02  0.0000E+00  0.0000E+00  0.0000E+00  0.0000E+00  0.1275E-02  0.3925E-02  0.0000E+00  0.0000E+00  0.0000E+00  0.0000E+00  0.6083E-01  0.1873E+00  0.0000E+00  0.0000E+00  0.0000E+00  0.0000E+00  0.0000E+00  0.0000E+00  0.0000E+00  0.0000E+00  0.0000E+00  0.0000E+00  0.0000E+00  0.0000E+00  0.0000E+00  0.0000E+00  0.0000E+00  0.0000E+00  0.0000E+00
REACH    1        0    19  0.7646E+02  0.3933E-01  0.4012E-01  0.0000E+00  0.3933E-01  0.2448E-07  0.2448E-07  0.7063E-05  0.4631E-05  0.3802E-05  0.1389E-04  0.9963E-05  0.5121E+01  0.5224E+01  0.0000E+00  0.0000E+00  0.0000E+00  0.0000E+00  0.4638E-05  0.1419E-04  0.0000E+00  0.0000E+00  0.0000E+00  0.0000E+00  0.0000E+00  0.1040E-01  0.0000E+00  0.0000E+00  0.0000E+00  0.0000E+00  0.0000E+00  0.0000E+00  0.0000E+00  0.0000E+00  0.0000E+00  0.0000E+00  0.0000E+00  0.0000E+00  0.0000E+00  0.0000E+00  0.0000E+00  0.0000E+00  0.0000E+00
REACH    2        0    19  0.8510E+02  0.3182E-01  0.3242E-01  0.0000E+00  0.3182E-01  0.6167E-08  0.6167E-08  0.2202E-05  0.6357E-05  0.5213E-05  0.1907E-04  0.1366E-04  0.3614E+01  0.3683E+01  0.0000E+00  0.0000E+00  0.0000E+00  0.0000E+00  0.6365E-05  0.1946E-04  0.0000E+00  0.0000E+00  0.0000E+00  0.0000E+00  0.0000E+00  0.8403E-02  0.0000E+00  0.0000E+00  0.0000E+00  0.0000E+00  0.0000E+00  0.0000E+00  0.0000E+00  0.0000E+00  0.0000E+00  0.0000E+00  0.0000E+00  0.0000E+00  0.0000E+00  0.0000E+00  0.0000E+00  0.0000E+00  0.0000E+00
REACH    3        0    19  0.1958E+03  0.7783E-01  0.7980E-01  0.0000E+00  0.7783E-01  0.1885E-03  0.6227E-01  0.9033E+01  0.2103E-02  0.1735E-02  0.3742E-03  0.2697E-03  0.9610E+01  0.9853E+01  0.0000E+00  0.0000E+00  0.0000E+00  0.0000E+00  0.3412E-03  0.1049E-02  0.0000E+00  0.0000E+00  0.0000E+00  0.0000E+00  0.1880E-01  0.5783E-01  0.0000E+00  0.0000E+00  0.0000E+00  0.0000E+00  0.0000E+00  0.0000E+00  0.0000E+00  0.0000E+00  0.0000E+00  0.0000E+00  0.0000E+00  0.0000E+00  0.0000E+00  0.0000E+00  0.0000E+00  0.0000E+00  0.0000E+00
REACH    4        0    19  0.3629E+02  0.7175E-02  0.7517E-02  0.0000E+00  0.7175E-02  0.1375E-03  0.1375E-03  0.2117E+00  0.1910E-02  0.0000E+00  0.3172E-03  0.0000E+00  0.1318E+01  0.0000E+00  0.0000E+00  0.0000E+00  0.0000E+00  0.0000E+00  0.1778E-03  0.0000E+00  0.0000E+00  0.0000E+00  0.0000E+00  0.0000E+00  0.0000E+00  0.0000E+00  0.0000E+00  0.0000E+00  0.0000E+00  0.0000E+00  0.0000E+00  0.0000E+00  0.0000E+00  0.0000E+00  0.0000E+00  0.0000E+00  0.0000E+00  0.0000E+00  0.0000E+00  0.0000E+00  0.0000E+00  0.0000E+00  0.0000E+00
REACH    5        0    19  0.2911E+03  0.8991E-01  0.9187E-01  0.0000E+00  0.8991E-01  0.6241E-01  0.1055E+00  0.1329E+02  0.1739E-02  0.1430E-02  0.2806E-03  0.2016E-03  0.1043E+02  0.1066E+02  0.0000E+00  0.0000E+00  0.0000E+00  0.0000E+00  0.1053E-02  0.3228E-02  0.0000E+00  0.0000E+00  0.0000E+00  0.0000E+00  0.5783E-01  0.1773E+00  0.0000E+00  0.0000E+00  0.0000E+00  0.0000E+00  0.0000E+00  0.0000E+00  0.0000E+00  0.0000E+00  0.0000E+00  0.0000E+00  0.0000E+00  0.0000E+00  0.0000E+00  0.0000E+00  0.0000E+00  0.0000E+00  0.0000E+00
REACH    1        0    20  0.7646E+02  0.3763E-01  0.3827E-01  0.0000E+00  0.3763E-01  0.1430E-07  0.1430E-07  0.4324E-05  0.4631E-05  0.3576E-05  0.1389E-04  0.8915E-05  0.4902E+01  0.4985E+01  0.0000E+00  0.0000E+00  0.0000E+00  0.0000E+00  0.4638E-05  0.1415E-04  0.0000E+00  0.0000E+00  0.0000E+00  0.0000E+00  0.0000E+00  0.9919E-02  0.0000E+00  0.0000E+00  0.0000E+00  0.0000E+00  0.0000E+00  0.0000E+00  0.0000E+00  0.0000E+00  0.0000E+00  0.0000E+00  0.0000E+00  0.0000E+00  0.0000E+00  0.0000E+00  0.0000E+00  0.0000E+00  0.0000E+00
REACH    2        0    20  0.8510E+02  0.3042E-01  0.3087E-01  0.0000E+00  0.3042E-01  0.6167E-08  0.6167E-08  0.2312E-05  0.6357E-05  0.4901E-05  0.1907E-04  0.1222E-04  0.3451E+01  0.3503E+01  0.0000E+00  0.0000E+00  0.0000E+00  0.0000E+00  0.6365E-05  0.1938E-04  0.0000E+00  0.0000E+00  0.0000E+00  0.0000E+00  0.0000E+00  0.8002E-02  0.0000E+00  0.0000E+00  0.0000E+00  0.0000E+00  0.0000E+00  0.0000E+00  0.0000E+00  0.0000E+00  0.0000E+00  0.0000E+00  0.0000E+00  0.0000E+00  0.0000E+00  0.0000E+00  0.0000E+00  0.0000E+00  0.0000E+00
REACH    3        0    20  0.1958E+03  0.7412E-01  0.7582E-01  0.0000E+00  0.7412E-01  0.1530E-03  0.5916E-01  0.9030E+01  0.1709E-02  0.1328E-02  0.3075E-03  0.1985E-03  0.9130E+01  0.9338E+01  0.0000E+00  0.0000E+00  0.0000E+00  0.0000E+00  0.2833E-03  0.8693E-03  0.0000E+00  0.0000E+00  0.0000E+00  0.0000E+00  0.1792E-01  0.5499E-01  0.0000E+00  0.0000E+00  0.0000E+00  0.0000E+00  0.0000E+00  0.0000E+00  0.0000E+00  0.0000E+00  0.0000E+00  0.0000E+00  0.0000E+00  0.0000E+00  0.0000E+00  0.0000E+00  0.0000E+00  0.0000E+00  0.0000E+00
REACH    4        0    20  0.3629E+02  0.6654E-02  0.6935E-02  0.0000E+00  0.6654E-02  0.1164E-03  0.1164E-03  0.1943E+00  0.1618E-02  0.0000E+00  0.2701E-03  0.0000E+00  0.1227E+01  0.0000E+00  0.0000E+00  0.0000E+00  0.0000E+00  0.0000E+00  0.1510E-03  0.0000E+00  0.0000E+00  0.0000E+00  0.0000E+00  0.0000E+00  0.0000E+00  0.0000E+00  0.0000E+00  0.0000E+00  0.0000E+00  0.0000E+00  0.0000E+00  0.0000E+00  0.0000E+00  0.0000E+00  0.0000E+00  0.0000E+00  0.0000E+00  0.0000E+00  0.0000E+00  0.0000E+00  0.0000E+00  0.0000E+00  0.0000E+00
REACH    5        0    20  0.2911E+03  0.8511E-01  0.8656E-01  0.0000E+00  0.8511E-01  0.5927E-01  0.9409E-01  0.1258E+02  0.1331E-02  0.1028E-02  0.2093E-03  0.1343E-03  0.9875E+01  0.1004E+02  0.0000E+00  0.0000E+00  0.0000E+00  0.0000E+00  0.8729E-03  0.2663E-02  0.0000E+00  0.0000E+00  0.0000E+00  0.0000E+00  0.5499E-01  0.1678E+00  0.0000E+00  0.0000E+00  0.0000E+00  0.0000E+00  0.0000E+00  0.0000E+00  0.0000E+00  0.0000E+00  0.0000E+00  0.0000E+00  0.0000E+00  0.0000E+00  0.0000E+00  0.0000E+00  0.0000E+00  0.0000E+00  0.0000E+00
REACH    1        0    21  0.7646E+02  0.3602E-01  0.3667E-01  0.0000E+00  0.3602E-01  0.9283E-08  0.9283E-08  0.2930E-05  0.4631E-05  0.3723E-05  0.1389E-04  0.9607E-05  0.4694E+01  0.4778E+01  0.0000E+00  0.0000E+00  0.0000E+00  0.0000E+00  0.4638E-05  0.1417E-04  0.0000E+00  0.0000E+00  0.0000E+00  0.0000E+00  0.0000E+00  0.9504E-02  0.0000E+00  0.0000E+00  0.0000E+00  0.0000E+00  0.0000E+00  0.0000E+00  0.0000E+00  0.0000E+00  0.0000E+00  0.0000E+00  0.0000E+00  0.0000E+00  0.0000E+00  0.0000E+00  0.0000E+00  0.0000E+00  0.0000E+00
REACH    2        0    21  0.8510E+02  0.2909E-01  0.2957E-01  0.0000E+00  0.2909E-01  0.6167E-08  0.6167E-08  0.2414E-05  0.6357E-05  0.5103E-05  0.1907E-04  0.1317E-04  0.3298E+01  0.3352E+01  0.0000E+00  0.0000E+00  0.0000E+00  0.0000E+00  0.6365E-05  0.1941E-04  0.0000E+00  0.0000E+00  0.0000E+00  0.0000E+00  0.0000E+00  0.7663E-02  0.0000E+00  0.0000E+00  0.0000E+00  0.0000E+00  0.0000E+00  0.0000E+00  0.0000E+00  0.0000E+00  0.0000E+00  0.0000E+00  0.0000E+00  0.0000E+00  0.0000E+00  0.0000E+00  0.0000E+00  0.0000E+00  0.0000E+00
REACH    3        0    21  0.1958E+03  0.7094E-01  0.7249E-01  0.0000E+00  0.7094E-01  0.1242E-03  0.5655E-01  0.9029E+01  0.1391E-02  0.1122E-02  0.2569E-03  0.1783E-03  0.8718E+01  0.8908E+01  0.0000E+00  0.0000E+00  0.0000E+00  0.0000E+00  0.2365E-03  0.7251E-03  0.0000E+00  0.0000E+00  0.0000E+00  0.0000E+00  0.1717E-01  0.5263E-01  0.0000E+00  0.0000E+00  0.0000E+00  0.0000E+00  0.0000E+00  0.0000E+00  0.0000E+00  0.0000E+00  0.0000E+00  0.0000E+00  0.0000E+00  0.0000E+00  0.0000E+00  0.0000E+00  0.0000E+00  0.0000E+00  0.0000E+00
REACH    4        0    21  0.3629E+02  0.6189E-02  0.6442E-02  0.0000E+00  0.6189E-02  0.9860E-04  0.9860E-04  0.1772E+00  0.1370E-02  0.0000E+00  0.2302E-03  0.0000E+00  0.1146E+01  0.0000E+00  0.0000E+00  0.0000E+00  0.0000E+00  0.0000E+00  0.1284E-03  0.0000E+00  0.0000E+00  0.0000E+00  0.0000E+00  0.0000E+00  0.0000E+00  0.0000E+00  0.0000E+00  0.0000E+00  0.0000E+00  0.0000E+00  0.0000E+00  0.0000E+00  0.0000E+00  0.0000E+00  0.0000E+00  0.0000E+00  0.0000E+00  0.0000E+00  0.0000E+00  0.0000E+00  0.0000E+00  0.0000E+00  0.0000E+00
REACH    5        0    21  0.2911E+03  0.8108E-01  0.8241E-01  0.0000E+00  0.8108E-01  0.5665E-01  0.8534E-01  0.1199E+02  0.1126E-02  0.9039E-03  0.1892E-03  0.1306E-03  0.9408E+01  0.9562E+01  0.0000E+00  0.0000E+00  0.0000E+00  0.0000E+00  0.7287E-03  0.2222E-02  0.0000E+00  0.0000E+00  0.0000E+00  0.0000E+00  0.5263E-01  0.1605E+00  0.0000E+00  0.0000E+00  0.0000E+00  0.0000E+00  0.0000E+00  0.0000E+00  0.0000E+00  0.0000E+00  0.0000E+00  0.0000E+00  0.0000E+00  0.0000E+00  0.0000E+00  0.0000E+00  0.0000E+00  0.0000E+00  0.0000E+00
REACH    1        0    22  0.7646E+02  0.3449E-01  0.3513E-01  0.0000E+00  0.3449E-01  0.6817E-08  0.6817E-08  0.2246E-05  0.4631E-05  0.3699E-05  0.1389E-04  0.9486E-05  0.4496E+01  0.4579E+01  0.0000E+00  0.0000E+00  0.0000E+00  0.0000E+00  0.4638E-05  0.1417E-04  0.0000E+00  0.0000E+00  0.0000E+00  0.0000E+00  0.0000E+00  0.9105E-02  0.0000E+00  0.0000E+00  0.0000E+00  0.0000E+00  0.0000E+00  0.0000E+00  0.0000E+00  0.0000E+00  0.0000E+00  0.0000E+00  0.0000E+00  0.0000E+00  0.0000E+00  0.0000E+00  0.0000E+00  0.0000E+00  0.0000E+00
REACH    2        0    22  0.8510E+02  0.2784E-01  0.2831E-01  0.0000E+00  0.2784E-01  0.6167E-08  0.6167E-08  0.2521E-05  0.6357E-05  0.5070E-05  0.1907E-04  0.1300E-04  0.3153E+01  0.3207E+01  0.0000E+00  0.0000E+00  0.0000E+00  0.0000E+00  0.6365E-05  0.1942E-04  0.0000E+00  0.0000E+00  0.0000E+00  0.0000E+00  0.0000E+00  0.7337E-02  0.0000E+00  0.0000E+00  0.0000E+00  0.0000E+00  0.0000E+00  0.0000E+00  0.0000E+00  0.0000E+00  0.0000E+00  0.0000E+00  0.0000E+00  0.0000E+00  0.0000E+00  0.0000E+00  0.0000E+00  0.0000E+00  0.0000E+00
REACH    3        0    22  0.1958E+03  0.6789E-01  0.6936E-01  0.0000E+00  0.6789E-01  0.1008E-03  0.5410E-01  0.9027E+01  0.1131E-02  0.9066E-03  0.2143E-03  0.1468E-03  0.8327E+01  0.8507E+01  0.0000E+00  0.0000E+00  0.0000E+00  0.0000E+00  0.1986E-03  0.6088E-03  0.0000E+00  0.0000E+00  0.0000E+00  0.0000E+00  0.1644E-01  0.5040E-01  0.0000E+00  0.0000E+00  0.0000E+00  0.0000E+00  0.0000E+00  0.0000E+00  0.0000E+00  0.0000E+00  0.0000E+00  0.0000E+00  0.0000E+00  0.0000E+00  0.0000E+00  0.0000E+00  0.0000E+00  0.0000E+00  0.0000E+00
REACH    4        0    22  0.3629E+02  0.5773E-02  0.5999E-02  0.0000E+00  0.5773E-02  0.8351E-04  0.8351E-04  0.1611E+00  0.1161E-02  0.0000E+00  0.1964E-03  0.0000E+00  0.1073E+01  0.0000E+00  0.0000E+00  0.0000E+00  0.0000E+00  0.0000E+00  0.1092E-03  0.0000E+00  0.0000E+00  0.0000E+00  0.0000E+00  0.0000E+00  0.0000E+00  0.0000E+00  0.0000E+00  0.0000E+00  0.0000E+00  0.0000E+00  0.0000E+00  0.0000E+00  0.0000E+00  0.0000E+00  0.0000E+00  0.0000E+00  0.0000E+00  0.0000E+00  0.0000E+00  0.0000E+00  0.0000E+00  0.0000E+00  0.0000E+00
REACH    5        0    22  0.2911E+03  0.7733E-01  0.7857E-01  0.0000E+00  0.7733E-01  0.5418E-01  0.7760E-01  0.1143E+02  0.9102E-03  0.7253E-03  0.1576E-03  0.1073E-03  0.8974E+01  0.9118E+01  0.0000E+00  0.0000E+00  0.0000E+00  0.0000E+00  0.6124E-03  0.1867E-02  0.0000E+00  0.0000E+00  0.0000E+00  0.0000E+00  0.5040E-01  0.1536E+00  0.0000E+00  0.0000E+00  0.0000E+00  0.0000E+00  0.0000E+00  0.0000E+00  0.0000E+00  0.0000E+00  0.0000E+00  0.0000E+00  0.0000E+00  0.0000E+00  0.0000E+00  0.0000E+00  0.0000E+00  0.0000E+00  0.0000E+00
REACH    1        0    23  0.7646E+02  0.3303E-01  0.3352E-01  0.0000E+00  0.3303E-01  0.5604E-08  0.5604E-08  0.1935E-05  0.4631E-05  0.3676E-05  0.1389E-04  0.9407E-05  0.4307E+01  0.4371E+01  0.0000E+00  0.0000E+00  0.0000E+00  0.0000E+00  0.4638E-05  0.1412E-04  0.0000E+00  0.0000E+00  0.0000E+00  0.0000E+00  0.0000E+00  0.8688E-02  0.0000E+00  0.0000E+00  0.0000E+00  0.0000E+00  0.0000E+00  0.0000E+00  0.0000E+00  0.0000E+00  0.0000E+00  0.0000E+00  0.0000E+00  0.0000E+00  0.0000E+00  0.0000E+00  0.0000E+00  0.0000E+00  0.0000E+00
REACH    2        0    23  0.8510E+02  0.2665E-01  0.2698E-01  0.0000E+00  0.2665E-01  0.6167E-08  0.6167E-08  0.2645E-05  0.6357E-05  0.5035E-05  0.1907E-04  0.1288E-04  0.3017E+01  0.3054E+01  0.0000E+00  0.0000E+00  0.0000E+00  0.0000E+00  0.6365E-05  0.1934E-04  0.0000E+00  0.0000E+00  0.0000E+00  0.0000E+00  0.0000E+00  0.6993E-02  0.0000E+00  0.0000E+00  0.0000E+00  0.0000E+00  0.0000E+00  0.0000E+00  0.0000E+00  0.0000E+00  0.0000E+00  0.0000E+00  0.0000E+00  0.0000E+00  0.0000E+00  0.0000E+00  0.0000E+00  0.0000E+00  0.0000E+00
REACH    3        0    23  0.1958E+03  0.6473E-01  0.6603E-01  0.0000E+00  0.6473E-01  0.8188E-04  0.5149E-01  0.9026E+01  0.9212E-03  0.7352E-03  0.1797E-03  0.1223E-03  0.7925E+01  0.8085E+01  0.0000E+00  0.0000E+00  0.0000E+00  0.0000E+00  0.1678E-03  0.5135E-03  0.0000E+00  0.0000E+00  0.0000E+00  0.0000E+00  0.1568E-01  0.4799E-01  0.0000E+00  0.0000E+00  0.0000E+00  0.0000E+00  0.0000E+00  0.0000E+00  0.0000E+00  0.0000E+00  0.0000E+00  0.0000E+00  0.0000E+00  0.0000E+00  0.0000E+00  0.0000E+00  0.0000E+00  0.0000E+00  0.0000E+00
REACH    4        0    23  0.3629E+02  0.5399E-02  0.5578E-02  0.0000E+00  0.5399E-02  0.7072E-04  0.7072E-04  0.1467E+00  0.9838E-03  0.0000E+00  0.1678E-03  0.0000E+00  0.1007E+01  0.0000E+00  0.0000E+00  0.0000E+00  0.0000E+00  0.0000E+00  0.9299E-04  0.0000E+00  0.0000E+00  0.0000E+00  0.0000E+00  0.0000E+00  0.0000E+00  0.0000E+00  0.0000E+00  0.0000E+00  0.0000E+00  0.0000E+00  0.0000E+00  0.0000E+00  0.0000E+00  0.0000E+00  0.0000E+00  0.0000E+00  0.0000E+00  0.0000E+00  0.0000E+00  0.0000E+00  0.0000E+00  0.0000E+00  0.0000E+00
REACH    5        0    23  0.2911E+03  0.7343E-01  0.7428E-01  0.0000E+00  0.7343E-01  0.5157E-01  0.6966E-01  0.1085E+02  0.7388E-03  0.5846E-03  0.1331E-03  0.8987E-04  0.8523E+01  0.8622E+01  0.0000E+00  0.0000E+00  0.0000E+00  0.0000E+00  0.5171E-03  0.1569E-02  0.0000E+00  0.0000E+00  0.0000E+00  0.0000E+00  0.4799E-01  0.1457E+00  0.0000E+00  0.0000E+00  0.0000E+00  0.0000E+00  0.0000E+00  0.0000E+00  0.0000E+00  0.0000E+00  0.0000E+00  0.0000E+00  0.0000E+00  0.0000E+00  0.0000E+00  0.0000E+00  0.0000E+00  0.0000E+00  0.0000E+00
REACH    1        0    24  0.7646E+02  0.8804E-01  0.6653E-01  0.0000E+00  0.8804E-01  0.9312E+01  0.9312E+01  0.1620E+04  0.1784E+02  0.2691E+02  0.2579E+01  0.4386E+01  0.1318E+03  0.8312E+02  0.0000E+00  0.0000E+00  0.0000E+00  0.0000E+00  0.1406E+00  0.0000E+00  0.6383E+02  0.0000E+00  0.3464E+04  0.0000E+00  0.3814E+02  0.0000E+00  0.0000E+00  0.0000E+00  0.0000E+00  0.0000E+00  0.0000E+00  0.0000E+00  0.0000E+00  0.0000E+00  0.0000E+00  0.0000E+00  0.0000E+00  0.0000E+00  0.0000E+00  0.0000E+00  0.0000E+00  0.0000E+00  0.0000E+00
REACH    2        0    24  0.8510E+02  0.2551E-01  0.2584E-01  0.0000E+00  0.2551E-01  0.6167E-08  0.6167E-08  0.2762E-05  0.6357E-05  0.5242E-05  0.1907E-04  0.1387E-04  0.2887E+01  0.2924E+01  0.0000E+00  0.0000E+00  0.0000E+00  0.0000E+00  0.6365E-05  0.1934E-04  0.0000E+00  0.0000E+00  0.0000E+00  0.0000E+00  0.0000E+00  0.6698E-02  0.0000E+00  0.0000E+00  0.0000E+00  0.0000E+00  0.0000E+00  0.0000E+00  0.0000E+00  0.0000E+00  0.0000E+00  0.0000E+00  0.0000E+00  0.0000E+00  0.0000E+00  0.0000E+00  0.0000E+00  0.0000E+00  0.0000E+00
REACH    3        0    24  0.1958E+03  0.9638E-01  0.8413E-01  0.0000E+00  0.9638E-01  0.9312E+01  0.4784E+01  0.6582E+03  0.2691E+02  0.1913E+02  0.4387E+01  0.2749E+01  0.8651E+02  0.7551E+02  0.0000E+00  0.0000E+00  0.0000E+00  0.0000E+00  0.1288E-03  0.3373E-03  0.0000E+00  0.0000E+00  0.0000E+00  0.0000E+00  0.6698E-02  0.2181E-01  0.0000E+00  0.0000E+00  0.0000E+00  0.0000E+00  0.0000E+00  0.0000E+00  0.0000E+00  0.0000E+00  0.0000E+00  0.0000E+00  0.0000E+00  0.0000E+00  0.0000E+00  0.0000E+00  0.0000E+00  0.0000E+00  0.0000E+00
REACH    4        0    24  0.3629E+02  0.5061E-02  0.5221E-02  0.0000E+00  0.5061E-02  0.5989E-04  0.5989E-04  0.1328E+00  0.8337E-03  0.0000E+00  0.1436E-03  0.0000E+00  0.9478E+00  0.0000E+00  0.0000E+00  0.0000E+00  0.0000E+00  0.0000E+00  0.7924E-04  0.0000E+00  0.0000E+00  0.0000E+00  0.0000E+00  0.0000E+00  0.0000E+00  0.0000E+00  0.0000E+00  0.0000E+00  0.0000E+00  0.0000E+00  0.0000E+00  0.0000E+00  0.0000E+00  0.0000E+00  0.0000E+00  0.0000E+00  0.0000E+00  0.0000E+00  0.0000E+00  0.0000E+00  0.0000E+00  0.0000E+00  0.0000E+00
REACH    5        0    24  0.2911E+03  0.9104E-01  0.8359E-01  0.0000E+00  0.9104E-01  0.4784E+01  0.9720E-01  0.1346E+02  0.1913E+02  0.1430E+02  0.2749E+01  0.1812E+01  0.7593E+02  0.6972E+02  0.0000E+00  0.0000E+00  0.0000E+00  0.0000E+00  0.3409E-03  0.9390E-03  0.0000E+00  0.0000E+00  0.0000E+00  0.0000E+00  0.2181E-01  0.6007E-01  0.0000E+00  0.0000E+00  0.0000E+00  0.0000E+00  0.0000E+00  0.0000E+00  0.0000E+00  0.0000E+00  0.0000E+00  0.0000E+00  0.0000E+00  0.0000E+00  0.0000E+00  0.0000E+00  0.0000E+00  0.0000E+00  0.0000E+00
REACH    1        0    25  0.7646E+02  0.3039E+00  0.2916E+00  0.1648E-02  0.9330E-01  0.2354E+02  0.2354E+02  0.9343E+03  0.3519E+02  0.5223E+02  0.5404E+01  0.8394E+01  0.2213E+03  0.1861E+03  0.0000E+00  0.0000E+00  0.0000E+00  0.0000E+00  0.5172E+00  0.0000E+00  0.8535E+02  0.0000E+00  0.5587E+04  0.0000E+00  0.2357E+03  0.0000E+00  0.0000E+00  0.0000E+00  0.0000E+00  0.0000E+00  0.0000E+00  0.0000E+00  0.0000E+00  0.0000E+00  0.0000E+00  0.0000E+00  0.0000E+00  0.0000E+00  0.0000E+00  0.0000E+00  0.0000E+00  0.0000E+00  0.0000E+00
REACH    2        0    25  0.8510E+02  0.1334E+01  0.1224E+01  0.1613E-02  0.9150E-01  0.4207E+03  0.3940E+03  0.3726E+04  0.2026E+03  0.1861E+03  0.4392E+02  0.3597E+02  0.9889E+03  0.8656E+03  0.0000E+00  0.0000E+00  0.0000E+00  0.0000E+00  0.3316E+01  0.3940E+01  0.1164E+03  0.0000E+00  0.3499E+05  0.0000E+00  0.1180E+04  0.0000E+00  0.0000E+00  0.0000E+00  0.0000E+00  0.0000E+00  0.0000E+00  0.0000E+00  0.0000E+00  0.0000E+00  0.0000E+00  0.0000E+00  0.0000E+00  0.0000E+00  0.0000E+00  0.0000E+00  0.0000E+00  0.0000E+00  0.0000E+00
REACH    3        0    25  0.1958E+03  0.1804E+01  0.1685E+01  0.2631E-02  0.1507E+00  0.4935E+03  0.3869E+03  0.2659E+04  0.2515E+03  0.2307E+03  0.4909E+02  0.4082E+02  0.1711E+04  0.1551E+04  0.0000E+00  0.0000E+00  0.0000E+00  0.0000E+00  0.4699E+01  0.5360E+01  0.1281E+03  0.0000E+00  0.6432E+03  0.0000E+00  0.2780E+03  0.7790E+03  0.0000E+00  0.0000E+00  0.0000E+00  0.0000E+00  0.0000E+00  0.0000E+00  0.0000E+00  0.0000E+00  0.0000E+00  0.0000E+00  0.0000E+00  0.0000E+00  0.0000E+00  0.0000E+00  0.0000E+00  0.0000E+00  0.0000E+00
REACH    4        0    25  0.3629E+02  0.4085E+00  0.3953E+00  0.2702E-03  0.1545E-01  0.8513E+01  0.8325E+01  0.2438E+03  0.1821E+02  0.5286E+02  0.3290E+01  0.9552E+01  0.7670E+03  0.6879E+03  0.0000E+00  0.0000E+00  0.0000E+00  0.0000E+00  0.1130E+01  0.0000E+00  0.1370E+03  0.0000E+00  0.1134E+04  0.0000E+00  0.3895E+03  0.0000E+00  0.0000E+00  0.0000E+00  0.0000E+00  0.0000E+00  0.0000E+00  0.0000E+00  0.0000E+00  0.0000E+00  0.0000E+00  0.0000E+00  0.0000E+00  0.0000E+00  0.0000E+00  0.0000E+00  0.0000E+00  0.0000E+00  0.0000E+00
REACH    5        0    25  0.2911E+03  0.2505E+01  0.2133E+01  0.6076E-02  0.3485E+00  0.3969E+03  0.2479E+03  0.1345E+04  0.2891E+03  0.2181E+03  0.5121E+02  0.3503E+02  0.2909E+04  0.2460E+04  0.0000E+00  0.0000E+00  0.0000E+00  0.0000E+00  0.6448E+01  0.1157E+02  0.5286E+02  0.0000E+00  0.2423E+03  0.0000E+00  0.1200E+04  0.3067E+04  0.0000E+00  0.0000E+00  0.0000E+00  0.0000E+00  0.0000E+00  0.0000E+00  0.0000E+00  0.0000E+00  0.0000E+00  0.0000E+00  0.0000E+00  0.0000E+00  0.0000E+00  0.0000E+00  0.0000E+00  0.0000E+00  0.0000E+00
REACH    1        0    26  0.7646E+02  0.4644E+01  0.4269E+01  0.8094E-03  0.9786E-01  0.4746E+03  0.4368E+03  0.1184E+04  0.5631E+03  0.4569E+03  0.8676E+02  0.6424E+02  0.4060E+03  0.3408E+03  0.0000E+00  0.0000E+00  0.0000E+00  0.0000E+00  0.1022E+02  0.2118E+02  0.1036E+03  0.0000E+00  0.1025E+06  0.0000E+00  0.4113E+04  0.0000E+00  0.0000E+00  0.0000E+00  0.0000E+00  0.0000E+00  0.0000E+00  0.0000E+00  0.0000E+00  0.0000E+00  0.0000E+00  0.0000E+00  0.0000E+00  0.0000E+00  0.0000E+00  0.0000E+00  0.0000E+00  0.0000E+00  0.0000E+00
REACH    2        0    26  0.8510E+02  0.5608E+01  0.5390E+01  0.7800E-03  0.9434E-01  0.1503E+04  0.1426E+04  0.3062E+04  0.9533E+03  0.7933E+03  0.1858E+03  0.1384E+03  0.9345E+03  0.8962E+03  0.0000E+00  0.0000E+00  0.0000E+00  0.0000E+00  0.1426E+02  0.4128E+02  0.1286E+03  0.0000E+00  0.1735E+06  0.0000E+00  0.5100E+04  0.0000E+00  0.0000E+00  0.0000E+00  0.0000E+00  0.0000E+00  0.0000E+00  0.0000E+00  0.0000E+00  0.0000E+00  0.0000E+00  0.0000E+00  0.0000E+00  0.0000E+00  0.0000E+00  0.0000E+00  0.0000E+00  0.0000E+00  0.0000E+00
REACH    3        0    26  0.1958E+03  0.1158E+02  0.1076E+02  0.1274E-02  0.1555E+00  0.2381E+04  0.1931E+04  0.2078E+04  0.1346E+04  0.1080E+04  0.2340E+03  0.1689E+03  0.2014E+04  0.1862E+04  0.0000E+00  0.0000E+00  0.0000E+00  0.0000E+00  0.6740E+02  0.9778E+02  0.1584E+03  0.0000E+00  0.6352E+04  0.0000E+00  0.1829E+04  0.5172E+04  0.0000E+00  0.0000E+00  0.0000E+00  0.0000E+00  0.0000E+00  0.0000E+00  0.0000E+00  0.0000E+00  0.0000E+00  0.0000E+00  0.0000E+00  0.0000E+00  0.0000E+00  0.0000E+00  0.0000E+00  0.0000E+00  0.0000E+00
REACH    4        0    26  0.3629E+02  0.2192E+01  0.2151E+01  0.1326E-03  0.1619E-01  0.6462E+02  0.6323E+02  0.3402E+03  0.1229E+03  0.1475E+03  0.2280E+02  0.2544E+02  0.9148E+03  0.8526E+03  0.0000E+00  0.0000E+00  0.0000E+00  0.0000E+00  0.5672E+01  0.0000E+00  0.1579E+03  0.0000E+00  0.1012E+05  0.0000E+00  0.2027E+04  0.0000E+00  0.0000E+00  0.0000E+00  0.0000E+00  0.0000E+00  0.0000E+00  0.0000E+00  0.0000E+00  0.0000E+00  0.0000E+00  0.0000E+00  0.0000E+00  0.0000E+00  0.0000E+00  0.0000E+00  0.0000E+00  0.0000E+00  0.0000E+00
REACH    5        0    26  0.2911E+03  0.1594E+02  0.1432E+02  0.2926E-02  0.3577E+00  0.2005E+04  0.1454E+04  0.1175E+04  0.1240E+04  0.9419E+03  0.1969E+03  0.1343E+03  0.3623E+04  0.3441E+04  0.0000E+00  0.0000E+00  0.0000E+00  0.0000E+00  0.1053E+03  0.1290E+03  0.6232E+02  0.0000E+00  0.3828E+03  0.0000E+00  0.8124E+04  0.2254E+05  0.0000E+00  0.0000E+00  0.0000E+00  0.0000E+00  0.0000E+00  0.0000E+00  0.0000E+00  0.0000E+00  0.0000E+00  0.0000E+00  0.0000E+00  0.0000E+00  0.0000E+00  0.0000E+00  0.0000E+00  0.0000E+00  0.0000E+00
REACH    1        0    27  0.7646E+02  0.1397E+01  0.1763E+01  0.8526E-03  0.9530E-01  0.4400E+02  0.4400E+02  0.2888E+03  0.6630E+02  0.3170E+03  0.1025E+02  0.4733E+02  0.1639E+03  0.0000E+00  0.0000E+00  0.0000E+00  0.0000E+00  0.0000E+00  0.3323E+01  0.0000E+00  0.7438E+04  0.0000E+00  0.1329E+05  0.0000E+00  0.9904E+03  0.2967E+04  0.0000E+00  0.0000E+00  0.0000E+00  0.0000E+00  0.0000E+00  0.0000E+00  0.0000E+00  0.0000E+00  0.0000E+00  0.0000E+00  0.0000E+00  0.0000E+00  0.0000E+00  0.0000E+00  0.0000E+00  0.0000E+00  0.0000E+00
REACH    2        0    27  0.8510E+02  0.1064E+01  0.1349E+01  0.8188E-03  0.9150E-01  0.8980E+02  0.8980E+02  0.7707E+03  0.5704E+02  0.2977E+03  0.1124E+02  0.5580E+02  0.2321E+03  0.0000E+00  0.0000E+00  0.0000E+00  0.0000E+00  0.0000E+00  0.2337E+01  0.0000E+00  0.1275E+05  0.0000E+00  0.7723E+04  0.0000E+00  0.8381E+03  0.2506E+04  0.0000E+00  0.0000E+00  0.0000E+00  0.0000E+00  0.0000E+00  0.0000E+00  0.0000E+00  0.0000E+00  0.0000E+00  0.0000E+00  0.0000E+00  0.0000E+00  0.0000E+00  0.0000E+00  0.0000E+00  0.0000E+00  0.0000E+00
REACH    3        0    27  0.1958E+03  0.3421E+01  0.4314E+01  0.1348E-02  0.1522E+00  0.1561E+03  0.3048E+03  0.8176E+03  0.6231E+03  0.1454E+04  0.1052E+03  0.2496E+03  0.1099E+03  0.0000E+00  0.0000E+00  0.0000E+00  0.0000E+00  0.0000E+00  0.7626E+00  0.0000E+00  0.2736E+04  0.0000E+00  0.5286E+03  0.0000E+00  0.5581E+04  0.0000E+00  0.0000E+00  0.0000E+00  0.0000E+00  0.0000E+00  0.0000E+00  0.0000E+00  0.0000E+00  0.0000E+00  0.0000E+00  0.0000E+00  0.0000E+00  0.0000E+00  0.0000E+00  0.0000E+00  0.0000E+00  0.0000E+00  0.0000E+00
REACH    4        0    27  0.3629E+02  0.3526E+00  0.3993E+00  0.1371E-03  0.1545E-01  0.4642E+01  0.4642E+01  0.1345E+03  0.1532E+02  0.5562E+02  0.2407E+01  0.8886E+01  0.1464E+03  0.0000E+00  0.0000E+00  0.0000E+00  0.0000E+00  0.0000E+00  0.7232E+00  0.0000E+00  0.3030E+04  0.0000E+00  0.3370E+04  0.0000E+00  0.2574E+03  0.0000E+00  0.0000E+00  0.0000E+00  0.0000E+00  0.0000E+00  0.0000E+00  0.0000E+00  0.0000E+00  0.0000E+00  0.0000E+00  0.0000E+00  0.0000E+00  0.0000E+00  0.0000E+00  0.0000E+00  0.0000E+00  0.0000E+00  0.0000E+00
REACH    5        0    27  0.2911E+03  0.5720E+01  0.7534E+01  0.3118E-02  0.3526E+00  0.3133E+03  0.4605E+03  0.7074E+03  0.1512E+04  0.2541E+04  0.2593E+03  0.4265E+03  0.2588E+03  0.0000E+00  0.0000E+00  0.0000E+00  0.0000E+00  0.0000E+00  0.2409E+01  0.0000E+00  0.3797E+04  0.0000E+00  0.7781E+03  0.0000E+00  0.3840E+03  0.9782E+04  0.0000E+00  0.0000E+00  0.0000E+00  0.0000E+00  0.0000E+00  0.0000E+00  0.0000E+00  0.0000E+00  0.0000E+00  0.0000E+00  0.0000E+00  0.0000E+00  0.0000E+00  0.0000E+00  0.0000E+00  0.0000E+00  0.0000E+00
REACH    1        0    28  0.7646E+02  0.1794E+01  0.1538E+01  0.1245E-02  0.9530E-01  0.1459E+03  0.1252E+03  0.9422E+03  0.1972E+03  0.1686E+03  0.2927E+02  0.2371E+02  0.2146E+03  0.1469E+03  0.0000E+00  0.0000E+00  0.0000E+00  0.0000E+00  0.3755E+01  0.2814E+01  0.1085E+03  0.0000E+00  0.4096E+05  0.0000E+00  0.1504E+04  0.0000E+00  0.0000E+00  0.0000E+00  0.0000E+00  0.0000E+00  0.0000E+00  0.0000E+00  0.0000E+00  0.0000E+00  0.0000E+00  0.0000E+00  0.0000E+00  0.0000E+00  0.0000E+00  0.0000E+00  0.0000E+00  0.0000E+00  0.0000E+00
REACH    2        0    28  0.8510E+02  0.7838E+00  0.6525E+00  0.1186E-02  0.9073E-01  0.8609E+02  0.7189E+02  0.1275E+04  0.6868E+02  0.8222E+02  0.1307E+02  0.1442E+02  0.2034E+03  0.1292E+03  0.0000E+00  0.0000E+00  0.0000E+00  0.0000E+00  0.1577E+01  0.0000E+00  0.1230E+03  0.0000E+00  0.1246E+05  0.0000E+00  0.5682E+03  0.0000E+00  0.0000E+00  0.0000E+00  0.0000E+00  0.0000E+00  0.0000E+00  0.0000E+00  0.0000E+00  0.0000E+00  0.0000E+00  0.0000E+00  0.0000E+00  0.0000E+00  0.0000E+00  0.0000E+00  0.0000E+00  0.0000E+00  0.0000E+00
REACH    3        0    28  0.1958E+03  0.2469E+01  0.1978E+01  0.1961E-02  0.1512E+00  0.2381E+03  0.1366E+03  0.7993E+03  0.2589E+03  0.2196E+03  0.4084E+02  0.3284E+02  0.4249E+03  0.2930E+03  0.0000E+00  0.0000E+00  0.0000E+00  0.0000E+00  0.3414E+01  0.2363E+01  0.1875E+03  0.0000E+00  0.3296E+03  0.0000E+00  0.2383E+03  0.5726E+03  0.0000E+00  0.0000E+00  0.0000E+00  0.0000E+00  0.0000E+00  0.0000E+00  0.0000E+00  0.0000E+00  0.0000E+00  0.0000E+00  0.0000E+00  0.0000E+00  0.0000E+00  0.0000E+00  0.0000E+00  0.0000E+00  0.0000E+00
REACH    4        0    28  0.3629E+02  0.3536E+00  0.3245E+00  0.2006E-03  0.1545E-01  0.6114E+01  0.5617E+01  0.2003E+03  0.7293E+01  0.2008E+02  0.1662E+01  0.4576E+01  0.1905E+03  0.1151E+03  0.0000E+00  0.0000E+00  0.0000E+00  0.0000E+00  0.8009E+00  0.0000E+00  0.1563E+03  0.0000E+00  0.2948E+03  0.0000E+00  0.2512E+03  0.6915E+03  0.0000E+00  0.0000E+00  0.0000E+00  0.0000E+00  0.0000E+00  0.0000E+00  0.0000E+00  0.0000E+00  0.0000E+00  0.0000E+00  0.0000E+00  0.0000E+00  0.0000E+00  0.0000E+00  0.0000E+00  0.0000E+00  0.0000E+00
REACH    5        0    28  0.2911E+03  0.3008E+01  0.2387E+01  0.4522E-02  0.3490E+00  0.1456E+03  0.7629E+02  0.3699E+03  0.2446E+03  0.1892E+03  0.3838E+02  0.2757E+02  0.6358E+03  0.4756E+03  0.0000E+00  0.0000E+00  0.0000E+00  0.0000E+00  0.3961E+01  0.5649E+01  0.1192E+03  0.0000E+00  0.1937E+03  0.0000E+00  0.1903E+04  0.4530E+04  0.0000E+00  0.0000E+00  0.0000E+00  0.0000E+00  0.0000E+00  0.0000E+00  0.0000E+00  0.0000E+00  0.0000E+00  0.0000E+00  0.0000E+00  0.0000E+00  0.0000E+00  0.0000E+00  0.0000E+00  0.0000E+00  0.0000E+00
REACH    1        0    29  0.7646E+02  0.8111E+00  0.1065E+01  0.4367E-03  0.9444E-01  0.2364E+02  0.2364E+02  0.2570E+03  0.3970E+02  0.9967E+02  0.6080E+01  0.1554E+02  0.1537E+03  0.1373E+03  0.0000E+00  0.0000E+00  0.0000E+00  0.0000E+00  0.1587E+01  0.0000E+00  0.1321E+03  0.0000E+00  0.5702E+04  0.0000E+00  0.5492E+03  0.1647E+04  0.0000E+00  0.0000E+00  0.0000E+00  0.0000E+00  0.0000E+00  0.0000E+00  0.0000E+00  0.0000E+00  0.0000E+00  0.0000E+00  0.0000E+00  0.0000E+00  0.0000E+00  0.0000E+00  0.0000E+00  0.0000E+00  0.0000E+00
REACH    2        0    29  0.8510E+02  0.2696E+01  0.2726E+01  0.4269E-03  0.9253E-01  0.5594E+03  0.5402E+03  0.2294E+04  0.2118E+03  0.2173E+03  0.4982E+02  0.4341E+02  0.2598E+03  0.2377E+03  0.0000E+00  0.0000E+00  0.0000E+00  0.0000E+00  0.6228E+01  0.1165E+02  0.1192E+03  0.0000E+00  0.3672E+05  0.0000E+00  0.2328E+04  0.0000E+00  0.0000E+00  0.0000E+00  0.0000E+00  0.0000E+00  0.0000E+00  0.0000E+00  0.0000E+00  0.0000E+00  0.0000E+00  0.0000E+00  0.0000E+00  0.0000E+00  0.0000E+00  0.0000E+00  0.0000E+00  0.0000E+00  0.0000E+00
REACH    3        0    29  0.1958E+03  0.4492E+01  0.4818E+01  0.6985E-03  0.1527E+00  0.7413E+03  0.6734E+03  0.1618E+04  0.3486E+03  0.3775E+03  0.6932E+02  0.6481E+02  0.5320E+03  0.5184E+03  0.0000E+00  0.0000E+00  0.0000E+00  0.0000E+00  0.1326E+02  0.1969E+02  0.1889E+03  0.0000E+00  0.2050E+04  0.0000E+00  0.2267E+04  0.6989E+04  0.0000E+00  0.0000E+00  0.0000E+00  0.0000E+00  0.0000E+00  0.0000E+00  0.0000E+00  0.0000E+00  0.0000E+00  0.0000E+00  0.0000E+00  0.0000E+00  0.0000E+00  0.0000E+00  0.0000E+00  0.0000E+00  0.0000E+00
REACH    4        0    29  0.3629E+02  0.8730E+00  0.8966E+00  0.7200E-04  0.1574E-01  0.2662E+02  0.2647E+02  0.3417E+03  0.3983E+02  0.8470E+02  0.8124E+01  0.1562E+02  0.1992E+03  0.1581E+03  0.0000E+00  0.0000E+00  0.0000E+00  0.0000E+00  0.2048E+01  0.0000E+00  0.1510E+03  0.0000E+00  0.3182E+04  0.0000E+00  0.7064E+03  0.0000E+00  0.0000E+00  0.0000E+00  0.0000E+00  0.0000E+00  0.0000E+00  0.0000E+00  0.0000E+00  0.0000E+00  0.0000E+00  0.0000E+00  0.0000E+00  0.0000E+00  0.0000E+00  0.0000E+00  0.0000E+00  0.0000E+00  0.0000E+00
REACH    5        0    29  0.2911E+03  0.7007E+01  0.7132E+01  0.1609E-02  0.3526E+00  0.7066E+03  0.5620E+03  0.9120E+03  0.4702E+03  0.4133E+03  0.8212E+02  0.6307E+02  0.9175E+03  0.9500E+03  0.0000E+00  0.0000E+00  0.0000E+00  0.0000E+00  0.2254E+02  0.3903E+02  0.6445E+02  0.0000E+00  0.2555E+03  0.0000E+00  0.8182E+04  0.0000E+00  0.0000E+00  0.0000E+00  0.0000E+00  0.0000E+00  0.0000E+00  0.0000E+00  0.0000E+00  0.0000E+00  0.0000E+00  0.0000E+00  0.0000E+00  0.0000E+00  0.0000E+00  0.0000E+00  0.0000E+00  0.0000E+00  0.0000E+00
[...]
REACH    5        0    58  0.2911E+03  0.8206E+00  0.8175E+00  0.3356E-02  0.3463E+00  0.3204E+01  0.3277E+01  0.4640E+02  0.2893E+01  0.2338E+01  0.5294E+00  0.3760E+00  0.1951E+03  0.1944E+03  0.0000E+00  0.0000E+00  0.0000E+00  0.0000E+00  0.1057E+01  0.1223E+01  0.0000E+00  0.0000E+00  0.0000E+00  0.0000E+00  0.4221E+00  0.1261E+01  0.0000E+00  0.0000E+00  0.0000E+00  0.0000E+00  0.0000E+00  0.0000E+00  0.0000E+00  0.0000E+00  0.0000E+00  0.0000E+00  0.0000E+00  0.0000E+00  0.0000E+00  0.0000E+00  0.0000E+00  0.0000E+00  0.0000E+00
REACH    1        0    59  0.7646E+02  0.1539E+00  0.1523E+00  0.1393E-02  0.9302E-01  0.7525E-04  0.7525E-04  0.5720E-02  0.1023E-03  0.8228E-04  0.2621E-04  0.1858E-04  0.4546E+02  0.4497E+02  0.0000E+00  0.0000E+00  0.0000E+00  0.0000E+00  0.2857E-02  0.8478E-02  0.0000E+00  0.0000E+00  0.0000E+00  0.0000E+00  0.0000E+00  0.3947E-01  0.0000E+00  0.0000E+00  0.0000E+00  0.0000E+00  0.0000E+00  0.0000E+00  0.0000E+00  0.0000E+00  0.0000E+00  0.0000E+00  0.0000E+00  0.0000E+00  0.0000E+00  0.0000E+00  0.0000E+00  0.0000E+00  0.0000E+00
REACH    2        0    59  0.8510E+02  0.2701E+00  0.2686E+00  0.1349E-02  0.9021E-01  0.2305E+00  0.2305E+00  0.9931E+01  0.5670E+00  0.4587E+00  0.9273E-01  0.6609E-01  0.6071E+02  0.6038E+02  0.0000E+00  0.0000E+00  0.0000E+00  0.0000E+00  0.8649E-01  0.1247E+00  0.0000E+00  0.0000E+00  0.0000E+00  0.0000E+00  0.0000E+00  0.6963E-01  0.0000E+00  0.0000E+00  0.0000E+00  0.0000E+00  0.0000E+00  0.0000E+00  0.0000E+00  0.0000E+00  0.0000E+00  0.0000E+00  0.0000E+00  0.0000E+00  0.0000E+00  0.0000E+00  0.0000E+00  0.0000E+00  0.0000E+00
REACH    3        0    59  0.1958E+03  0.4642E+00  0.4617E+00  0.2211E-02  0.1494E+00  0.2966E+00  0.5804E+00  0.1455E+02  0.5783E+00  0.4678E+00  0.8847E-01  0.6305E-01  0.1158E+03  0.1152E+03  0.0000E+00  0.0000E+00  0.0000E+00  0.0000E+00  0.1520E+00  0.1950E+00  0.0000E+00  0.0000E+00  0.0000E+00  0.0000E+00  0.1091E+00  0.3255E+00  0.0000E+00  0.0000E+00  0.0000E+00  0.0000E+00  0.0000E+00  0.0000E+00  0.0000E+00  0.0000E+00  0.0000E+00  0.0000E+00  0.0000E+00  0.0000E+00  0.0000E+00  0.0000E+00  0.0000E+00  0.0000E+00  0.0000E+00
REACH    4        0    59  0.3629E+02  0.4770E-01  0.4747E-01  0.2245E-03  0.1515E-01  0.2589E-01  0.2589E-01  0.6314E+01  0.1855E+00  0.1502E+00  0.2562E-01  0.1827E-01  0.8347E+01  0.8305E+01  0.0000E+00  0.0000E+00  0.0000E+00  0.0000E+00  0.8712E-02  0.2062E-01  0.0000E+00  0.0000E+00  0.0000E+00  0.0000E+00  0.0000E+00  0.1230E-01  0.0000E+00  0.0000E+00  0.0000E+00  0.0000E+00  0.0000E+00  0.0000E+00  0.0000E+00  0.0000E+00  0.0000E+00  0.0000E+00  0.0000E+00  0.0000E+00  0.0000E+00  0.0000E+00  0.0000E+00  0.0000E+00  0.0000E+00
REACH    5        0    59  0.2911E+03  0.6011E+00  0.5954E+00  0.5107E-02  0.3463E+00  0.1211E+01  0.1494E+01  0.2903E+02  0.9284E+00  0.7480E+00  0.1874E+00  0.1330E+00  0.1458E+03  0.1444E+03  0.0000E+00  0.0000E+00  0.0000E+00  0.0000E+00  0.3950E+00  0.4651E+00  0.0000E+00  0.0000E+00  0.0000E+00  0.0000E+00  0.3378E+00  0.1004E+01  0.0000E+00  0.0000E+00  0.0000E+00  0.0000E+00  0.0000E+00  0.0000E+00  0.0000E+00  0.0000E+00  0.0000E+00  0.0000E+00  0.0000E+00  0.0000E+00  0.0000E+00  0.0000E+00  0.0000E+00  0.0000E+00  0.0000E+00
REACH    1        0    60  0.7646E+02  0.1460E+00  0.1434E+00  0.2154E-02  0.9302E-01  0.3141E-05  0.3141E-05  0.2535E-03  0.1014E-04  0.0000E+00  0.1403E-04  0.0000E+00  0.4272E+02  0.4196E+02  0.0000E+00  0.0000E+00  0.0000E+00  0.0000E+00  0.1071E-02  0.3158E-02  0.0000E+00  0.0000E+00  0.0000E+00  0.0000E+00  0.0000E+00  0.3716E-01  0.0000E+00  0.0000E+00  0.0000E+00  0.0000E+00  0.0000E+00  0.0000E+00  0.0000E+00  0.0000E+00  0.0000E+00  0.0000E+00  0.0000E+00  0.0000E+00  0.0000E+00  0.0000E+00  0.0000E+00  0.0000E+00  0.0000E+00
REACH    2        0    60  0.8510E+02  0.2355E+00  0.2332E+00  0.2082E-02  0.8996E-01  0.5878E-01  0.5878E-01  0.2918E+01  0.1904E+00  0.1507E+00  0.2960E-01  0.2035E-01  0.5499E+02  0.5444E+02  0.0000E+00  0.0000E+00  0.0000E+00  0.0000E+00  0.2606E-01  0.5497E-01  0.0000E+00  0.0000E+00  0.0000E+00  0.0000E+00  0.0000E+00  0.6044E-01  0.0000E+00  0.0000E+00  0.0000E+00  0.0000E+00  0.0000E+00  0.0000E+00  0.0000E+00  0.0000E+00  0.0000E+00  0.0000E+00  0.0000E+00  0.0000E+00  0.0000E+00  0.0000E+00  0.0000E+00  0.0000E+00  0.0000E+00
REACH    3        0    60  0.1958E+03  0.4131E+00  0.4092E+00  0.3421E-02  0.1492E+00  0.7789E-01  0.3789E+00  0.1072E+02  0.2200E+00  0.1742E+00  0.3151E-01  0.2167E-01  0.1052E+03  0.1042E+03  0.0000E+00  0.0000E+00  0.0000E+00  0.0000E+00  0.6643E-01  0.1023E+00  0.0000E+00  0.0000E+00  0.0000E+00  0.0000E+00  0.9760E-01  0.2900E+00  0.0000E+00  0.0000E+00  0.0000E+00  0.0000E+00  0.0000E+00  0.0000E+00  0.0000E+00  0.0000E+00  0.0000E+00  0.0000E+00  0.0000E+00  0.0000E+00  0.0000E+00  0.0000E+00  0.0000E+00  0.0000E+00  0.0000E+00
REACH    4        0    60  0.3629E+02  0.4111E-01  0.4071E-01  0.3479E-03  0.1515E-01  0.5776E-02  0.5776E-02  0.1642E+01  0.5345E-01  0.4231E-01  0.7212E-02  0.4959E-02  0.7227E+01  0.7156E+01  0.0000E+00  0.0000E+00  0.0000E+00  0.0000E+00  0.2795E-02  0.8301E-02  0.0000E+00  0.0000E+00  0.0000E+00  0.0000E+00  0.0000E+00  0.1055E-01  0.0000E+00  0.0000E+00  0.0000E+00  0.0000E+00  0.0000E+00  0.0000E+00  0.0000E+00  0.0000E+00  0.0000E+00  0.0000E+00  0.0000E+00  0.0000E+00  0.0000E+00  0.0000E+00  0.0000E+00  0.0000E+00  0.0000E+00
REACH    5        0    60  0.2911E+03  0.5053E+00  0.4962E+00  0.7911E-02  0.3458E+00  0.6965E+00  0.1091E+01  0.2545E+02  0.3742E+00  0.2937E+00  0.8106E-01  0.5527E-01  0.1236E+03  0.1214E+03  0.0000E+00  0.0000E+00  0.0000E+00  0.0000E+00  0.1997E+00  0.2513E+00  0.0000E+00  0.0000E+00  0.0000E+00  0.0000E+00  0.3006E+00  0.8856E+00  0.0000E+00  0.0000E+00  0.0000E+00  0.0000E+00  0.0000E+00  0.0000E+00  0.0000E+00  0.0000E+00  0.0000E+00  0.0000E+00  0.0000E+00  0.0000E+00  0.0000E+00  0.0000E+00  0.0000E+00  0.0000E+00  0.0000E+00
REACH    1        0    61  0.7646E+02  0.1389E+00  0.1369E+00  0.1589E-02  0.9302E-01  0.1880E-06  0.1880E-06  0.1590E-04  0.4631E-05  0.0000E+00  0.1389E-04  0.0000E+00  0.4051E+02  0.3993E+02  0.0000E+00  0.0000E+00  0.0000E+00  0.0000E+00  0.4036E-03  0.1193E-02  0.0000E+00  0.0000E+00  0.0000E+00  0.0000E+00  0.0000E+00  0.3548E-01  0.0000E+00  0.0000E+00  0.0000E+00  0.0000E+00  0.0000E+00  0.0000E+00  0.0000E+00  0.0000E+00  0.0000E+00  0.0000E+00  0.0000E+00  0.0000E+00  0.0000E+00  0.0000E+00  0.0000E+00  0.0000E+00  0.0000E+00
REACH    2        0    61  0.8510E+02  0.2170E+00  0.2151E+00  0.1535E-02  0.8996E-01  0.1650E-01  0.1650E-01  0.8879E+00  0.6500E-01  0.5127E-01  0.9746E-02  0.6652E-02  0.5161E+02  0.5117E+02  0.0000E+00  0.0000E+00  0.0000E+00  0.0000E+00  0.8104E-02  0.2410E-01  0.0000E+00  0.0000E+00  0.0000E+00  0.0000E+00  0.0000E+00  0.5576E-01  0.0000E+00  0.0000E+00  0.0000E+00  0.0000E+00  0.0000E+00  0.0000E+00  0.0000E+00  0.0000E+00  0.0000E+00  0.0000E+00  0.0000E+00  0.0000E+00  0.0000E+00  0.0000E+00  0.0000E+00  0.0000E+00  0.0000E+00
REACH    3        0    61  0.1958E+03  0.3848E+00  0.3817E+00  0.2520E-02  0.1492E+00  0.2502E-01  0.3164E+00  0.9593E+01  0.1028E+00  0.8116E-01  0.1435E-01  0.9803E-02  0.9910E+02  0.9831E+02  0.0000E+00  0.0000E+00  0.0000E+00  0.0000E+00  0.3044E-01  0.6124E-01  0.0000E+00  0.0000E+00  0.0000E+00  0.0000E+00  0.9124E-01  0.2715E+00  0.0000E+00  0.0000E+00  0.0000E+00  0.0000E+00  0.0000E+00  0.0000E+00  0.0000E+00  0.0000E+00  0.0000E+00  0.0000E+00  0.0000E+00  0.0000E+00  0.0000E+00  0.0000E+00  0.0000E+00  0.0000E+00  0.0000E+00
REACH    4        0    61  0.3629E+02  0.3687E-01  0.3655E-01  0.2561E-03  0.1515E-01  0.2066E-02  0.2066E-02  0.6541E+00  0.2622E-01  0.2068E-01  0.3467E-02  0.2366E-02  0.6603E+01  0.6546E+01  0.0000E+00  0.0000E+00  0.0000E+00  0.0000E+00  0.1559E-02  0.4636E-02  0.0000E+00  0.0000E+00  0.0000E+00  0.0000E+00  0.0000E+00  0.9475E-02  0.0000E+00  0.0000E+00  0.0000E+00  0.0000E+00  0.0000E+00  0.0000E+00  0.0000E+00  0.0000E+00  0.0000E+00  0.0000E+00  0.0000E+00  0.0000E+00  0.0000E+00  0.0000E+00  0.0000E+00  0.0000E+00  0.0000E+00
REACH    5        0    61  0.2911E+03  0.4546E+00  0.4475E+00  0.5821E-02  0.3458E+00  0.4800E+00  0.8774E+00  0.2269E+02  0.1833E+00  0.1436E+00  0.4036E-01  0.2735E-01  0.1119E+03  0.1102E+03  0.0000E+00  0.0000E+00  0.0000E+00  0.0000E+00  0.1113E+00  0.1521E+00  0.0000E+00  0.0000E+00  0.0000E+00  0.0000E+00  0.2810E+00  0.8299E+00  0.0000E+00  0.0000E+00  0.0000E+00  0.0000E+00  0.0000E+00  0.0000E+00  0.0000E+00  0.0000E+00  0.0000E+00  0.0000E+00  0.0000E+00  0.0000E+00  0.0000E+00  0.0000E+00  0.0000E+00  0.0000E+00  0.0000E+00
REACH    1        0    62  0.7646E+02  0.1324E+00  0.1296E+00  0.2307E-02  0.9302E-01  0.3376E-07  0.3376E-07  0.3015E-05  0.4631E-05  0.0000E+00  0.1389E-04  0.0000E+00  0.3858E+02  0.3777E+02  0.0000E+00  0.0000E+00  0.0000E+00  0.0000E+00  0.1532E-03  0.4498E-03  0.0000E+00  0.0000E+00  0.0000E+00  0.0000E+00  0.0000E+00  0.3359E-01  0.0000E+00  0.0000E+00  0.0000E+00  0.0000E+00  0.0000E+00  0.0000E+00  0.0000E+00  0.0000E+00  0.0000E+00  0.0000E+00  0.0000E+00  0.0000E+00  0.0000E+00  0.0000E+00  0.0000E+00  0.0000E+00  0.0000E+00
REACH    2        0    62  0.8510E+02  0.2038E+00  0.2012E+00  0.2230E-02  0.8996E-01  0.4807E-02  0.4807E-02  0.2765E+00  0.2238E-01  0.1750E-01  0.3267E-02  0.2203E-02  0.4901E+02  0.4837E+02  0.0000E+00  0.0000E+00  0.0000E+00  0.0000E+00  0.2586E-02  0.7656E-02  0.0000E+00  0.0000E+00  0.0000E+00  0.0000E+00  0.0000E+00  0.5214E-01  0.0000E+00  0.0000E+00  0.0000E+00  0.0000E+00  0.0000E+00  0.0000E+00  0.0000E+00  0.0000E+00  0.0000E+00  0.0000E+00  0.0000E+00  0.0000E+00  0.0000E+00  0.0000E+00  0.0000E+00  0.0000E+00  0.0000E+00
REACH    3        0    62  0.1958E+03  0.3607E+00  0.3563E+00  0.3663E-02  0.1492E+00  0.1011E-01  0.2851E+00  0.9264E+01  0.5838E-01  0.4570E-01  0.8156E-02  0.5506E-02  0.9355E+02  0.9241E+02  0.0000E+00  0.0000E+00  0.0000E+00  0.0000E+00  0.1190E-01  0.3527E-01  0.0000E+00  0.0000E+00  0.0000E+00  0.0000E+00  0.8573E-01  0.2541E+00  0.0000E+00  0.0000E+00  0.0000E+00  0.0000E+00  0.0000E+00  0.0000E+00  0.0000E+00  0.0000E+00  0.0000E+00  0.0000E+00  0.0000E+00  0.0000E+00  0.0000E+00  0.0000E+00  0.0000E+00  0.0000E+00  0.0000E+00
REACH    4        0    62  0.3629E+02  0.3343E-01  0.3298E-01  0.3724E-03  0.1515E-01  0.1234E-02  0.1234E-02  0.4332E+00  0.1869E-01  0.1461E-01  0.2450E-02  0.1652E-02  0.6113E+01  0.6030E+01  0.0000E+00  0.0000E+00  0.0000E+00  0.0000E+00  0.1175E-02  0.3477E-02  0.0000E+00  0.0000E+00  0.0000E+00  0.0000E+00  0.0000E+00  0.8548E-02  0.0000E+00  0.0000E+00  0.0000E+00  0.0000E+00  0.0000E+00  0.0000E+00  0.0000E+00  0.0000E+00  0.0000E+00  0.0000E+00  0.0000E+00  0.0000E+00  0.0000E+00  0.0000E+00  0.0000E+00  0.0000E+00  0.0000E+00
REACH    5        0    62  0.2911E+03  0.4148E+00  0.4046E+00  0.8468E-02  0.3458E+00  0.3704E+00  0.7433E+00  0.2126E+02  0.1026E+00  0.7934E-01  0.2181E-01  0.1454E-01  0.1028E+03  0.1003E+03  0.0000E+00  0.0000E+00  0.0000E+00  0.0000E+00  0.6216E-01  0.9609E-01  0.0000E+00  0.0000E+00  0.0000E+00  0.0000E+00  0.2626E+00  0.7686E+00  0.0000E+00  0.0000E+00  0.0000E+00  0.0000E+00  0.0000E+00  0.0000E+00  0.0000E+00  0.0000E+00  0.0000E+00  0.0000E+00  0.0000E+00  0.0000E+00  0.0000E+00  0.0000E+00  0.0000E+00  0.0000E+00  0.0000E+00
REACH    1        0    63  0.7646E+02  0.1264E+00  0.1231E+00  0.2678E-02  0.9302E-01  0.1689E-07  0.1689E-07  0.1588E-05  0.4631E-05  0.0000E+00  0.1389E-04  0.0000E+00  0.3682E+02  0.3587E+02  0.0000E+00  0.0000E+00  0.0000E+00  0.0000E+00  0.5930E-04  0.1733E-03  0.0000E+00  0.0000E+00  0.0000E+00  0.0000E+00  0.0000E+00  0.3191E-01  0.0000E+00  0.0000E+00  0.0000E+00  0.0000E+00  0.0000E+00  0.0000E+00  0.0000E+00  0.0000E+00  0.0000E+00  0.0000E+00  0.0000E+00  0.0000E+00  0.0000E+00  0.0000E+00  0.0000E+00  0.0000E+00  0.0000E+00
REACH    2        0    63  0.8510E+02  0.1930E+00  0.1898E+00  0.2588E-02  0.8996E-01  0.1441E-02  0.1441E-02  0.8789E-01  0.7754E-02  0.6025E-02  0.1111E-02  0.7425E-03  0.4675E+02  0.4599E+02  0.0000E+00  0.0000E+00  0.0000E+00  0.0000E+00  0.8442E-03  0.2491E-02  0.0000E+00  0.0000E+00  0.0000E+00  0.0000E+00  0.0000E+00  0.4920E-01  0.0000E+00  0.0000E+00  0.0000E+00  0.0000E+00  0.0000E+00  0.0000E+00  0.0000E+00  0.0000E+00  0.0000E+00  0.0000E+00  0.0000E+00  0.0000E+00  0.0000E+00  0.0000E+00  0.0000E+00  0.0000E+00  0.0000E+00
REACH    3        0    63  0.1958E+03  0.3404E+00  0.3353E+00  0.4251E-02  0.1492E+00  0.5367E-02  0.2652E+00  0.9155E+01  0.3898E-01  0.3033E-01  0.5504E-02  0.3682E-02  0.8878E+02  0.8744E+02  0.0000E+00  0.0000E+00  0.0000E+00  0.0000E+00  0.5651E-02  0.1670E-01  0.0000E+00  0.0000E+00  0.0000E+00  0.0000E+00  0.8111E-01  0.2396E+00  0.0000E+00  0.0000E+00  0.0000E+00  0.0000E+00  0.0000E+00  0.0000E+00  0.0000E+00  0.0000E+00  0.0000E+00  0.0000E+00  0.0000E+00  0.0000E+00  0.0000E+00  0.0000E+00  0.0000E+00  0.0000E+00  0.0000E+00
REACH    4        0    63  0.3629E+02  0.3047E-01  0.2994E-01  0.4323E-03  0.1515E-01  0.9504E-03  0.9504E-03  0.3674E+00  0.1518E-01  0.1178E-01  0.1987E-02  0.1326E-02  0.5687E+01  0.5589E+01  0.0000E+00  0.0000E+00  0.0000E+00  0.0000E+00  0.9691E-03  0.2857E-02  0.0000E+00  0.0000E+00  0.0000E+00  0.0000E+00  0.0000E+00  0.7761E-02  0.0000E+00  0.0000E+00  0.0000E+00  0.0000E+00  0.0000E+00  0.0000E+00  0.0000E+00  0.0000E+00  0.0000E+00  0.0000E+00  0.0000E+00  0.0000E+00  0.0000E+00  0.0000E+00  0.0000E+00  0.0000E+00  0.0000E+00
REACH    5        0    63  0.2911E+03  0.3842E+00  0.3724E+00  0.9830E-02  0.3458E+00  0.3099E+00  0.6564E+00  0.2040E+02  0.6413E-01  0.4909E-01  0.1263E-01  0.8318E-02  0.9585E+02  0.9290E+02  0.0000E+00  0.0000E+00  0.0000E+00  0.0000E+00  0.3169E-01  0.6196E-01  0.0000E+00  0.0000E+00  0.0000E+00  0.0000E+00  0.2474E+00  0.7193E+00  0.0000E+00  0.0000E+00  0.0000E+00  0.0000E+00  0.0000E+00  0.0000E+00  0.0000E+00  0.0000E+00  0.0000E+00  0.0000E+00  0.0000E+00  0.0000E+00  0.0000E+00  0.0000E+00  0.0000E+00  0.0000E+00  0.0000E+00
REACH    1        0    64  0.7646E+02  0.1207E+00  0.1181E+00  0.2043E-02  0.9302E-01  0.1056E-07  0.1056E-07  0.1034E-05  0.4631E-05  0.0000E+00  0.1389E-04  0.0000E+00  0.3518E+02  0.3443E+02  0.0000E+00  0.0000E+00  0.0000E+00  0.0000E+00  0.2411E-04  0.7078E-04  0.0000E+00  0.0000E+00  0.0000E+00  0.0000E+00  0.0000E+00  0.3062E-01  0.0000E+00  0.0000E+00  0.0000E+00  0.0000E+00  0.0000E+00  0.0000E+00  0.0000E+00  0.0000E+00  0.0000E+00  0.0000E+00  0.0000E+00  0.0000E+00  0.0000E+00  0.0000E+00  0.0000E+00  0.0000E+00  0.0000E+00
REACH    2        0    64  0.8510E+02  0.1833E+00  0.1808E+00  0.1974E-02  0.8996E-01  0.4444E-03  0.4444E-03  0.2845E-01  0.2699E-02  0.2133E-02  0.3839E-03  0.2641E-03  0.4466E+02  0.4406E+02  0.0000E+00  0.0000E+00  0.0000E+00  0.0000E+00  0.2814E-03  0.8327E-03  0.0000E+00  0.0000E+00  0.0000E+00  0.0000E+00  0.0000E+00  0.4686E-01  0.0000E+00  0.0000E+00  0.0000E+00  0.0000E+00  0.0000E+00  0.0000E+00  0.0000E+00  0.0000E+00  0.0000E+00  0.0000E+00  0.0000E+00  0.0000E+00  0.0000E+00  0.0000E+00  0.0000E+00  0.0000E+00  0.0000E+00
REACH    3        0    64  0.1958E+03  0.3244E+00  0.3204E+00  0.3242E-02  0.1492E+00  0.3539E-02  0.2522E+00  0.9112E+01  0.2883E-01  0.2281E-01  0.4111E-02  0.2831E-02  0.8499E+02  0.8393E+02  0.0000E+00  0.0000E+00  0.0000E+00  0.0000E+00  0.3302E-02  0.9783E-02  0.0000E+00  0.0000E+00  0.0000E+00  0.0000E+00  0.7748E-01  0.2296E+00  0.0000E+00  0.0000E+00  0.0000E+00  0.0000E+00  0.0000E+00  0.0000E+00  0.0000E+00  0.0000E+00  0.0000E+00  0.0000E+00  0.0000E+00  0.0000E+00  0.0000E+00  0.0000E+00  0.0000E+00  0.0000E+00  0.0000E+00
REACH    4        0    64  0.3629E+02  0.2788E-01  0.2746E-01  0.3296E-03  0.1515E-01  0.7874E-03  0.7874E-03  0.3318E+00  0.1274E-01  0.1005E-01  0.1668E-02  0.1146E-02  0.5308E+01  0.5228E+01  0.0000E+00  0.0000E+00  0.0000E+00  0.0000E+00  0.8163E-03  0.2412E-02  0.0000E+00  0.0000E+00  0.0000E+00  0.0000E+00  0.0000E+00  0.7119E-02  0.0000E+00  0.0000E+00  0.0000E+00  0.0000E+00  0.0000E+00  0.0000E+00  0.0000E+00  0.0000E+00  0.0000E+00  0.0000E+00  0.0000E+00  0.0000E+00  0.0000E+00  0.0000E+00  0.0000E+00  0.0000E+00  0.0000E+00
REACH    5        0    64  0.2911E+03  0.3626E+00  0.3532E+00  0.7493E-02  0.3458E+00  0.2758E+00  0.6055E+00  0.1984E+02  0.4433E-01  0.3460E-01  0.7949E-02  0.5401E-02  0.9111E+02  0.8876E+02  0.0000E+00  0.0000E+00  0.0000E+00  0.0000E+00  0.1850E-01  0.4404E-01  0.0000E+00  0.0000E+00  0.0000E+00  0.0000E+00  0.2367E+00  0.6918E+00  0.0000E+00  0.0000E+00  0.0000E+00  0.0000E+00  0.0000E+00  0.0000E+00  0.0000E+00  0.0000E+00  0.0000E+00  0.0000E+00  0.0000E+00  0.0000E+00  0.0000E+00  0.0000E+00  0.0000E+00  0.0000E+00  0.0000E+00
REACH    1        0    65  0.7646E+02  0.1154E+00  0.1126E+00  0.2275E-02  0.9302E-01  0.7444E-08  0.7444E-08  0.7654E-06  0.4631E-05  0.0000E+00  0.1389E-04  0.0000E+00  0.3363E+02  0.3281E+02  0.0000E+00  0.0000E+00  0.0000E+00  0.0000E+00  0.1091E-04  0.3194E-04  0.0000E+00  0.0000E+00  0.0000E+00  0.0000E+00  0.0000E+00  0.2918E-01  0.0000E+00  0.0000E+00  0.0000E+00  0.0000E+00  0.0000E+00  0.0000E+00  0.0000E+00  0.0000E+00  0.0000E+00  0.0000E+00  0.0000E+00  0.0000E+00  0.0000E+00  0.0000E+00  0.0000E+00  0.0000E+00  0.0000E+00
REACH    2        0    65  0.8510E+02  0.1744E+00  0.1717E+00  0.2199E-02  0.8996E-01  0.1405E-03  0.1405E-03  0.9474E-02  0.9430E-03  0.7472E-03  0.1367E-03  0.9461E-04  0.4271E+02  0.4204E+02  0.0000E+00  0.0000E+00  0.0000E+00  0.0000E+00  0.9592E-04  0.2833E-03  0.0000E+00  0.0000E+00  0.0000E+00  0.0000E+00  0.0000E+00  0.4451E-01  0.0000E+00  0.0000E+00  0.0000E+00  0.0000E+00  0.0000E+00  0.0000E+00  0.0000E+00  0.0000E+00  0.0000E+00  0.0000E+00  0.0000E+00  0.0000E+00  0.0000E+00  0.0000E+00  0.0000E+00  0.0000E+00  0.0000E+00
REACH    3        0    65  0.1958E+03  0.3080E+00  0.3036E+00  0.3610E-02  0.1492E+00  0.2631E-02  0.2384E+00  0.9091E+01  0.2240E-01  0.1777E-01  0.3214E-02  0.2227E-02  0.8098E+02  0.7982E+02  0.0000E+00  0.0000E+00  0.0000E+00  0.0000E+00  0.2254E-02  0.6665E-02  0.0000E+00  0.0000E+00  0.0000E+00  0.0000E+00  0.7369E-01  0.2179E+00  0.0000E+00  0.0000E+00  0.0000E+00  0.0000E+00  0.0000E+00  0.0000E+00  0.0000E+00  0.0000E+00  0.0000E+00  0.0000E+00  0.0000E+00  0.0000E+00  0.0000E+00  0.0000E+00  0.0000E+00  0.0000E+00  0.0000E+00
REACH    4        0    65  0.3629E+02  0.2560E-01  0.2515E-01  0.3671E-03  0.1515E-01  0.6636E-03  0.6636E-03  0.3054E+00  0.1076E-01  0.8510E-02  0.1411E-02  0.9747E-03  0.4967E+01  0.4878E+01  0.0000E+00  0.0000E+00  0.0000E+00  0.0000E+00  0.6915E-03  0.2037E-02  0.0000E+00  0.0000E+00  0.0000E+00  0.0000E+00  0.0000E+00  0.6518E-02  0.0000E+00  0.0000E+00  0.0000E+00  0.0000E+00  0.0000E+00  0.0000E+00  0.0000E+00  0.0000E+00  0.0000E+00  0.0000E+00  0.0000E+00  0.0000E+00  0.0000E+00  0.0000E+00  0.0000E+00  0.0000E+00  0.0000E+00
REACH    5        0    65  0.2911E+03  0.3405E+00  0.3407E+00  0.0000E+00  0.3405E+00  0.2509E+00  0.6091E+00  0.2069E+02  0.3225E-01  0.2597E-01  0.5274E-02  0.3710E-02  0.8611E+02  0.8616E+02  0.0000E+00  0.0000E+00  0.0000E+00  0.0000E+00  0.1198E-01  0.3597E-01  0.0000E+00  0.0000E+00  0.0000E+00  0.0000E+00  0.2244E+00  0.6736E+00  0.0000E+00  0.0000E+00  0.0000E+00  0.0000E+00  0.0000E+00  0.0000E+00  0.0000E+00  0.0000E+00  0.0000E+00  0.0000E+00  0.0000E+00  0.0000E+00  0.0000E+00  0.0000E+00  0.0000E+00  0.0000E+00  0.0000E+00
