1
    SWAT Jun 01 2011    VER 2009/Rev. 481                                                                0/ 0/   0      0: 0: 0

    General Input/Output section (file.cio):                                        
    2013-7-14 00:00:00 ARCGIS-SWAT interface AV                                     
                                                                                    


       SUB      GIS  MON   AREAkm2  PRECIPmm SNOMELTmm     PETmm      ETmm      SWmm    PERCmm    SURQmm    GW_Qmm    WYLDmm  SYLDt/ha ORGNkg/ha ORGPkg/haNSURQkg/ha SOLPkg/ha SEDPkg/ha LAT Q(mm)LATNO3kg/hGWNO3kg/haCHOLAkg/haCBODUkg/ha DOXQkg/ha
BIGSUB   1        0    1.76460E+02 0.000E+00 0.000E+00 0.611E+00 0.107E+00 0.610E+02 0.000E+00 0.543E-01 0.000E+00 0.885E-01 0.609E-04 0.437E-03 0.547E-04 0.584E-02 0.154E-04 0.504E-05 0.342E-01 0.956E-03 0.100E-11 .00000E+00 0.000E+00 0.000E+00
BIGSUB   2        0    1.85095E+02 0.000E+00 0.000E+00 0.610E+00 0.119E+00 0.774E+02 0.000E+00 0.213E-01 0.000E+00 0.546E-01 0.147E-04 0.899E-04 0.113E-04 0.252E-02 0.569E-05 0.110E-05 0.333E-01 0.110E-02 0.100E-11 .00000E+00 0.000E+00 0.000E+00
BIGSUB   3        0    1.34257E+02 0.000E+00 0.000E+00 0.603E+00 0.108E+00 0.453E+02 0.000E+00 0.212E-01 0.000E+00 0.488E-01 0.114E-04 0.920E-04 0.125E-04 0.395E-02 0.681E-05 0.159E-05 0.276E-01 0.101E-02 0.100E-11 .00000E+00 0.000E+00 0.000E+00
BIGSUB   4        0    1.36293E+02 0.000E+00 0.000E+00 0.604E+00 0.114E+00 0.108E+03 0.000E+00 0.770E-02 0.000E+00 0.106E+00 0.915E-06 0.115E-04 0.178E-05 0.317E-03 0.106E-05 0.456E-07 0.982E-01 0.209E-02 0.100E-11 .00000E+00 0.000E+00 0.000E+00
BIGSUB   5        0    1.58984E+02 0.000E+00 0.000E+00 0.601E+00 0.950E-01 0.415E+02 0.000E+00 0.427E-01 0.000E+00 0.785E-01 0.409E-04 0.280E-04 0.421E-05 0.338E-02 0.115E-04 0.331E-05 0.358E-01 0.975E-03 0.100E-11 .00000E+00 0.000E+00 0.000E+00
BIGSUB   1        0    2.76460E+02 0.000E+00 0.000E+00 0.815E+00 0.149E+00 0.609E+02 0.000E+00 0.255E-01 0.000E+00 0.557E-01 0.292E-04 0.214E-03 0.268E-04 0.276E-02 0.721E-05 0.242E-05 0.302E-01 0.850E-03 0.100E-11 .00000E+00 0.000E+00 0.000E+00
BIGSUB   2        0    2.85095E+02 0.000E+00 0.000E+00 0.814E+00 0.165E+00 0.772E+02 0.000E+00 0.710E-02 0.000E+00 0.363E-01 0.491E-05 0.315E-04 0.394E-05 0.855E-03 0.189E-05 0.370E-06 0.292E-01 0.973E-03 0.100E-11 .00000E+00 0.000E+00 0.000E+00
BIGSUB   3        0    2.34257E+02 0.000E+00 0.000E+00 0.806E+00 0.145E+00 0.451E+02 0.000E+00 0.164E-01 0.000E+00 0.396E-01 0.847E-05 0.731E-04 0.995E-05 0.308E-02 0.527E-05 0.122E-05 0.232E-01 0.851E-03 0.100E-11 .00000E+00 0.000E+00 0.000E+00
BIGSUB   4        0    2.36293E+02 0.000E+00 0.000E+00 0.808E+00 0.154E+00 0.108E+03 0.000E+00 0.629E-02 0.000E+00 0.910E-01 0.668E-06 0.904E-05 0.143E-05 0.227E-03 0.830E-06 0.291E-07 0.847E-01 0.182E-02 0.100E-11 .00000E+00 0.000E+00 0.000E+00
BIGSUB   5        0    2.58984E+02 0.000E+00 0.000E+00 0.804E+00 0.131E+00 0.413E+02 0.000E+00 0.220E-01 0.000E+00 0.519E-01 0.211E-04 0.144E-04 0.218E-05 0.174E-02 0.592E-05 0.171E-05 0.299E-01 0.818E-03 0.100E-11 .00000E+00 0.000E+00 0.000E+00
BIGSUB   1        0    3.76460E+02 0.000E+00 0.000E+00 0.894E+00 0.158E+00 0.607E+02 0.000E+00 0.121E-01 0.000E+00 0.390E-01 0.141E-04 0.105E-03 0.132E-04 0.131E-02 0.342E-05 0.117E-05 0.269E-01 0.761E-03 0.100E-11 .00000E+00 0.000E+00 0.000E+00
BIGSUB   2        0    3.85095E+02 0.000E+00 0.000E+00 0.893E+00 0.176E+00 0.770E+02 0.000E+00 0.240E-02 0.000E+00 0.282E-01 0.167E-05 0.110E-04 0.138E-05 0.292E-03 0.640E-06 0.126E-06 0.258E-01 0.865E-03 0.100E-11 .00000E+00 0.000E+00 0.000E+00
BIGSUB   3        0    3.34257E+02 0.000E+00 0.000E+00 0.885E+00 0.153E+00 0.450E+02 0.000E+00 0.131E-01 0.000E+00 0.327E-01 0.663E-05 0.583E-04 0.794E-05 0.245E-02 0.418E-05 0.963E-06 0.196E-01 0.720E-03 0.100E-11 .00000E+00 0.000E+00 0.000E+00
BIGSUB   4        0    3.36293E+02 0.000E+00 0.000E+00 0.887E+00 0.165E+00 0.107E+03 0.000E+00 0.528E-02 0.000E+00 0.785E-01 0.546E-06 0.754E-05 0.119E-05 0.185E-03 0.691E-06 0.231E-07 0.732E-01 0.160E-02 0.100E-11 .00000E+00 0.000E+00 0.000E+00
BIGSUB   5        0    3.58984E+02 0.000E+00 0.000E+00 0.883E+00 0.140E+00 0.412E+02 0.000E+00 0.114E-01 0.000E+00 0.364E-01 0.110E-04 0.748E-05 0.113E-05 0.901E-03 0.307E-05 0.888E-06 0.250E-01 0.689E-03 0.100E-11 .00000E+00 0.000E+00 0.000E+00
BIGSUB   1        0    4.76460E+02 0.000E+00 0.000E+00 0.106E+01 0.182E+00 0.605E+02 0.000E+00 0.576E-02 0.000E+00 0.299E-01 0.682E-05 0.517E-04 0.646E-05 0.629E-03 0.163E-05 0.567E-06 0.241E-01 0.686E-03 0.100E-11 .00000E+00 0.000E+00 0.000E+00
BIGSUB   2        0    4.85095E+02 0.000E+00 0.000E+00 0.106E+01 0.202E+00 0.768E+02 0.000E+00 0.820E-03 0.000E+00 0.237E-01 0.572E-06 0.387E-05 0.485E-06 0.101E-03 0.219E-06 0.435E-07 0.229E-01 0.774E-03 0.100E-11 .00000E+00 0.000E+00 0.000E+00
BIGSUB   3        0    4.34257E+02 0.000E+00 0.000E+00 0.105E+01 0.173E+00 0.448E+02 0.000E+00 0.106E-01 0.000E+00 0.271E-01 0.526E-05 0.465E-04 0.635E-05 0.196E-02 0.335E-05 0.764E-06 0.166E-01 0.611E-03 0.100E-11 .00000E+00 0.000E+00 0.000E+00
BIGSUB   4        0    4.36293E+02 0.000E+00 0.000E+00 0.106E+01 0.187E+00 0.107E+03 0.000E+00 0.447E-02 0.000E+00 0.679E-01 0.459E-06 0.636E-05 0.101E-05 0.156E-03 0.583E-06 0.198E-07 0.634E-01 0.140E-02 0.100E-11 .00000E+00 0.000E+00 0.000E+00
BIGSUB   5        0    4.58984E+02 0.000E+00 0.000E+00 0.105E+01 0.160E+00 0.410E+02 0.000E+00 0.593E-02 0.000E+00 0.270E-01 0.570E-05 0.389E-05 0.587E-06 0.468E-03 0.160E-05 0.462E-06 0.211E-01 0.583E-03 0.100E-11 .00000E+00 0.000E+00 0.000E+00
BIGSUB   1        0    5.76460E+02 0.000E+00 0.000E+00 0.934E+00 0.153E+00 0.604E+02 0.000E+00 0.277E-02 0.000E+00 0.246E-01 0.331E-05 0.254E-04 0.318E-05 0.303E-03 0.785E-06 0.276E-06 0.218E-01 0.623E-03 0.100E-11 .00000E+00 0.000E+00 0.000E+00
BIGSUB   2        0    5.85095E+02 0.000E+00 0.000E+00 0.933E+00 0.170E+00 0.766E+02 0.000E+00 0.282E-03 0.000E+00 0.208E-01 0.198E-06 0.136E-05 0.170E-06 0.350E-04 0.754E-07 0.153E-07 0.205E-01 0.697E-03 0.100E-11 .00000E+00 0.000E+00 0.000E+00
BIGSUB   3        0    5.34257E+02 0.000E+00 0.000E+00 0.925E+00 0.144E+00 0.447E+02 0.000E+00 0.855E-02 0.000E+00 0.226E-01 0.419E-05 0.372E-04 0.508E-05 0.157E-02 0.269E-05 0.608E-06 0.141E-01 0.521E-03 0.100E-11 .00000E+00 0.000E+00 0.000E+00
BIGSUB   4        0    5.36293E+02 0.000E+00 0.000E+00 0.926E+00 0.157E+00 0.107E+03 0.000E+00 0.378E-02 0.000E+00 0.589E-01 0.388E-06 0.538E-05 0.854E-06 0.132E-03 0.494E-06 0.170E-07 0.551E-01 0.124E-02 0.100E-11 .00000E+00 0.000E+00 0.000E+00
BIGSUB   5        0    5.58984E+02 0.000E+00 0.000E+00 0.922E+00 0.134E+00 0.409E+02 0.000E+00 0.308E-02 0.000E+00 0.209E-01 0.297E-05 0.203E-05 0.306E-06 0.243E-03 0.831E-06 0.241E-06 0.178E-01 0.496E-03 0.100E-11 .00000E+00 0.000E+00 0.000E+00
BIGSUB   1        0    6.76460E+02 0.000E+00 0.000E+00 0.769E+00 0.123E+00 0.603E+02 0.000E+00 0.134E-02 0.000E+00 0.212E-01 0.162E-05 0.125E-04 0.156E-05 0.147E-03 0.380E-06 0.135E-06 0.198E-01 0.569E-03 0.100E-11 .00000E+00 0.000E+00 0.000E+00
BIGSUB   2        0    6.85095E+02 0.000E+00 0.000E+00 0.768E+00 0.136E+00 0.765E+02 0.000E+00 0.979E-04 0.000E+00 0.186E-01 0.687E-07 0.478E-06 0.600E-07 0.122E-04 0.263E-07 0.586E-08 0.185E-01 0.632E-03 0.100E-11 .00000E+00 0.000E+00 0.000E+00
BIGSUB   3        0    6.34257E+02 0.000E+00 0.000E+00 0.760E+00 0.113E+00 0.446E+02 0.000E+00 0.692E-02 0.000E+00 0.190E-01 0.334E-05 0.297E-04 0.406E-05 0.126E-02 0.216E-05 0.484E-06 0.120E-01 0.446E-03 0.100E-11 .00000E+00 0.000E+00 0.000E+00
BIGSUB   4        0    6.36293E+02 0.000E+00 0.000E+00 0.761E+00 0.124E+00 0.107E+03 0.000E+00 0.320E-02 0.000E+00 0.511E-01 0.329E-06 0.456E-05 0.723E-06 0.111E-03 0.418E-06 0.147E-07 0.479E-01 0.109E-02 0.100E-11 .00000E+00 0.000E+00 0.000E+00
BIGSUB   5        0    6.58984E+02 0.000E+00 0.000E+00 0.758E+00 0.105E+00 0.408E+02 0.000E+00 0.160E-02 0.000E+00 0.167E-01 0.154E-05 0.105E-05 0.159E-06 0.127E-03 0.433E-06 0.126E-06 0.151E-01 0.424E-03 0.100E-11 .00000E+00 0.000E+00 0.000E+00
BIGSUB   1        0    7.76460E+02 0.000E+00 0.000E+00 0.116E+01 0.182E+00 0.601E+02 0.000E+00 0.650E-03 0.000E+00 0.188E-01 0.790E-06 0.614E-05 0.768E-06 0.715E-04 0.184E-06 0.659E-07 0.181E-01 0.523E-03 0.100E-11 .00000E+00 0.000E+00 0.000E+00
BIGSUB   2        0    7.85095E+02 0.000E+00 0.000E+00 0.116E+01 0.203E+00 0.763E+02 0.000E+00 0.342E-04 0.000E+00 0.168E-01 0.239E-07 0.168E-06 0.214E-07 0.425E-05 0.927E-08 0.263E-08 0.168E-01 0.577E-03 0.100E-11 .00000E+00 0.000E+00 0.000E+00
BIGSUB   3        0    7.34257E+02 0.000E+00 0.000E+00 0.115E+01 0.168E+00 0.444E+02 0.000E+00 0.560E-02 0.000E+00 0.159E-01 0.267E-05 0.237E-04 0.325E-05 0.101E-02 0.174E-05 0.386E-06 0.103E-01 0.384E-03 0.100E-11 .00000E+00 0.000E+00 0.000E+00
BIGSUB   4        0    7.36293E+02 0.000E+00 0.000E+00 0.115E+01 0.187E+00 0.107E+03 0.000E+00 0.271E-02 0.000E+00 0.446E-01 0.278E-06 0.386E-05 0.613E-06 0.943E-04 0.354E-06 0.127E-07 0.418E-01 0.970E-03 0.100E-11 .00000E+00 0.000E+00 0.000E+00
BIGSUB   5        0    7.58984E+02 0.000E+00 0.000E+00 0.115E+01 0.158E+00 0.406E+02 0.000E+00 0.836E-03 0.000E+00 0.138E-01 0.805E-06 0.550E-06 0.832E-07 0.660E-04 0.226E-06 0.657E-07 0.129E-01 0.365E-03 0.100E-11 .00000E+00 0.000E+00 0.000E+00
BIGSUB   1        0    8.76460E+02 0.000E+00 0.000E+00 0.138E+01 0.211E+00 0.599E+02 0.000E+00 0.316E-03 0.000E+00 0.170E-01 0.386E-06 0.302E-05 0.378E-06 0.348E-04 0.898E-07 0.324E-07 0.167E-01 0.483E-03 0.100E-11 .00000E+00 0.000E+00 0.000E+00
BIGSUB   2        0    8.85095E+02 0.000E+00 0.000E+00 0.138E+01 0.236E+00 0.761E+02 0.000E+00 0.121E-04 0.000E+00 0.154E-01 0.836E-08 0.594E-07 0.781E-08 0.149E-05 0.353E-08 0.163E-08 0.153E-01 0.530E-03 0.100E-11 .00000E+00 0.000E+00 0.000E+00
BIGSUB   3        0    8.34257E+02 0.000E+00 0.000E+00 0.137E+01 0.194E+00 0.442E+02 0.000E+00 0.454E-02 0.000E+00 0.135E-01 0.213E-05 0.190E-04 0.260E-05 0.814E-03 0.139E-05 0.307E-06 0.893E-02 0.332E-03 0.100E-11 .00000E+00 0.000E+00 0.000E+00
BIGSUB   4        0    8.36293E+02 0.000E+00 0.000E+00 0.137E+01 0.220E+00 0.107E+03 0.000E+00 0.230E-02 0.000E+00 0.389E-01 0.236E-06 0.327E-05 0.519E-06 0.799E-04 0.300E-06 0.110E-07 0.366E-01 0.864E-03 0.100E-11 .00000E+00 0.000E+00 0.000E+00
BIGSUB   5        0    8.58984E+02 0.000E+00 0.000E+00 0.137E+01 0.185E+00 0.404E+02 0.000E+00 0.436E-03 0.000E+00 0.115E-01 0.419E-06 0.286E-06 0.435E-07 0.344E-04 0.118E-06 0.346E-07 0.111E-01 0.316E-03 0.100E-11 .00000E+00 0.000E+00 0.000E+00
BIGSUB   1        0    9.76460E+02 0.000E+00 0.000E+00 0.860E+00 0.127E+00 0.597E+02 0.000E+00 0.154E-03 0.000E+00 0.156E-01 0.189E-06 0.149E-05 0.186E-06 0.170E-04 0.439E-07 0.162E-07 0.154E-01 0.448E-03 0.100E-11 .00000E+00 0.000E+00 0.000E+00
BIGSUB   2        0    9.85095E+02 0.000E+00 0.000E+00 0.859E+00 0.142E+00 0.759E+02 0.000E+00 0.452E-05 0.000E+00 0.141E-01 0.293E-08 0.212E-07 0.303E-08 0.521E-06 0.153E-08 0.149E-08 0.141E-01 0.489E-03 0.100E-11 .00000E+00 0.000E+00 0.000E+00
BIGSUB   3        0    9.34257E+02 0.000E+00 0.000E+00 0.851E+00 0.115E+00 0.441E+02 0.000E+00 0.367E-02 0.000E+00 0.114E-01 0.170E-05 0.152E-04 0.208E-05 0.654E-03 0.112E-05 0.245E-06 0.776E-02 0.289E-03 0.100E-11 .00000E+00 0.000E+00 0.000E+00
BIGSUB   4        0    9.36293E+02 0.000E+00 0.000E+00 0.852E+00 0.132E+00 0.106E+03 0.000E+00 0.195E-02 0.000E+00 0.341E-01 0.200E-06 0.277E-05 0.440E-06 0.676E-04 0.254E-06 0.961E-08 0.321E-01 0.772E-03 0.100E-11 .00000E+00 0.000E+00 0.000E+00
BIGSUB   5        0    9.58984E+02 0.000E+00 0.000E+00 0.849E+00 0.110E+00 0.403E+02 0.000E+00 0.227E-03 0.000E+00 0.984E-02 0.218E-06 0.149E-06 0.228E-07 0.179E-04 0.614E-07 0.183E-07 0.961E-02 0.275E-03 0.100E-11 .00000E+00 0.000E+00 0.000E+00
BIGSUB   1        0   10.76460E+02 0.000E+00 0.000E+00 0.118E+01 0.172E+00 0.596E+02 0.000E+00 0.755E-04 0.000E+00 0.144E-01 0.929E-07 0.731E-06 0.915E-07 0.833E-05 0.215E-07 0.832E-08 0.143E-01 0.417E-03 0.100E-11 .00000E+00 0.000E+00 0.000E+00
BIGSUB   2        0   10.85095E+02 0.201E+00 0.000E+00 0.432E+00 0.117E+00 0.760E+02 0.000E+00 0.187E-05 0.000E+00 0.130E-01 0.103E-08 0.774E-08 0.135E-08 0.183E-06 0.821E-09 0.149E-08 0.130E-01 0.453E-03 0.100E-11 .00000E+00 0.000E+00 0.000E+00
BIGSUB   3        0   10.34257E+02 0.100E+00 0.000E+00 0.429E+00 0.105E+00 0.441E+02 0.000E+00 0.154E-02 0.000E+00 0.831E-02 0.136E-05 0.121E-04 0.167E-05 0.525E-03 0.902E-06 0.195E-06 0.678E-02 0.253E-03 0.100E-11 .00000E+00 0.000E+00 0.000E+00
BIGSUB   4        0   10.36293E+02 0.100E+00 0.000E+00 0.429E+00 0.125E+00 0.106E+03 0.000E+00 0.122E-02 0.000E+00 0.295E-01 0.169E-06 0.235E-05 0.372E-06 0.573E-04 0.216E-06 0.841E-08 0.283E-01 0.693E-03 0.100E-11 .00000E+00 0.000E+00 0.000E+00
BIGSUB   5        0   10.58984E+02 0.100E+00 0.000E+00 0.428E+00 0.114E+00 0.403E+02 0.000E+00 0.324E-06 0.000E+00 0.837E-02 0.114E-06 0.780E-07 0.120E-07 0.933E-05 0.322E-07 0.985E-08 0.836E-02 0.241E-03 0.100E-11 .00000E+00 0.000E+00 0.000E+00
BIGSUB   1        0   11.76460E+02 0.000E+00 0.000E+00 0.141E+01 0.201E+00 0.594E+02 0.000E+00 0.370E-04 0.000E+00 0.134E-01 0.456E-07 0.360E-06 0.452E-07 0.408E-05 0.106E-07 0.443E-08 0.134E-01 0.390E-03 0.100E-11 .00000E+00 0.000E+00 0.000E+00
BIGSUB   2        0   11.85095E+02 0.000E+00 0.000E+00 0.141E+01 0.242E+00 0.758E+02 0.000E+00 0.942E-06 0.000E+00 0.121E-01 0.361E-09 0.301E-08 0.759E-09 0.644E-07 0.747E-09 0.149E-08 0.121E-01 0.422E-03 0.100E-11 .00000E+00 0.000E+00 0.000E+00
BIGSUB   3        0   11.34257E+02 0.000E+00 0.000E+00 0.140E+01 0.189E+00 0.439E+02 0.000E+00 0.241E-02 0.000E+00 0.836E-02 0.108E-05 0.970E-05 0.133E-05 0.422E-03 0.725E-06 0.156E-06 0.595E-02 0.222E-03 0.100E-11 .00000E+00 0.000E+00 0.000E+00
BIGSUB   4        0   11.36293E+02 0.000E+00 0.000E+00 0.140E+01 0.219E+00 0.106E+03 0.000E+00 0.140E-02 0.000E+00 0.264E-01 0.143E-06 0.199E-05 0.316E-06 0.485E-04 0.183E-06 0.739E-08 0.250E-01 0.624E-03 0.100E-11 .00000E+00 0.000E+00 0.000E+00
BIGSUB   5        0   11.58984E+02 0.000E+00 0.000E+00 0.140E+01 0.182E+00 0.401E+02 0.000E+00 0.618E-04 0.000E+00 0.739E-02 0.592E-07 0.408E-07 0.643E-08 0.486E-05 0.169E-07 0.544E-08 0.733E-02 0.213E-03 0.100E-11 .00000E+00 0.000E+00 0.000E+00
BIGSUB   1        0   12.76460E+02 0.000E+00 0.000E+00 0.106E+01 0.148E+00 0.592E+02 0.000E+00 0.182E-04 0.000E+00 0.125E-01 0.224E-07 0.177E-06 0.224E-07 0.200E-05 0.541E-08 0.252E-08 0.125E-01 0.367E-03 0.100E-11 .00000E+00 0.000E+00 0.000E+00
BIGSUB   2        0   12.85095E+02 0.000E+00 0.000E+00 0.106E+01 0.177E+00 0.756E+02 0.000E+00 0.743E-06 0.000E+00 0.113E-01 0.127E-09 0.134E-08 0.747E-09 0.229E-07 0.747E-09 0.149E-08 0.113E-01 0.395E-03 0.100E-11 .00000E+00 0.000E+00 0.000E+00
BIGSUB   3        0   12.34257E+02 0.000E+00 0.000E+00 0.105E+01 0.137E+00 0.438E+02 0.000E+00 0.195E-02 0.000E+00 0.721E-02 0.865E-06 0.776E-05 0.107E-05 0.339E-03 0.584E-06 0.124E-06 0.526E-02 0.196E-03 0.100E-11 .00000E+00 0.000E+00 0.000E+00
BIGSUB   4        0   12.36293E+02 0.000E+00 0.000E+00 0.106E+01 0.161E+00 0.106E+03 0.000E+00 0.118E-02 0.000E+00 0.233E-01 0.121E-06 0.168E-05 0.267E-06 0.411E-04 0.155E-06 0.653E-08 0.222E-01 0.564E-03 0.100E-11 .00000E+00 0.000E+00 0.000E+00
BIGSUB   5        0   12.58984E+02 0.000E+00 0.000E+00 0.105E+01 0.133E+00 0.400E+02 0.000E+00 0.324E-04 0.000E+00 0.650E-02 0.309E-07 0.214E-07 0.350E-08 0.253E-05 0.896E-08 0.315E-08 0.647E-02 0.189E-03 0.100E-11 .00000E+00 0.000E+00 0.000E+00
BIGSUB   1        0   13.76460E+02 0.000E+00 0.000E+00 0.122E+01 0.166E+00 0.591E+02 0.000E+00 0.913E-05 0.000E+00 0.118E-01 0.110E-07 0.873E-07 0.112E-07 0.982E-06 0.283E-08 0.160E-08 0.118E-01 0.345E-03 0.100E-11 .00000E+00 0.000E+00 0.000E+00
BIGSUB   2        0   13.85095E+02 0.000E+00 0.000E+00 0.122E+01 0.197E+00 0.754E+02 0.000E+00 0.743E-06 0.000E+00 0.105E-01 0.450E-10 0.756E-09 0.747E-09 0.835E-08 0.747E-09 0.149E-08 0.105E-01 0.371E-03 0.100E-11 .00000E+00 0.000E+00 0.000E+00
BIGSUB   3        0   13.34257E+02 0.000E+00 0.000E+00 0.121E+01 0.151E+00 0.436E+02 0.000E+00 0.158E-02 0.000E+00 0.626E-02 0.690E-06 0.621E-05 0.856E-06 0.273E-03 0.470E-06 0.993E-07 0.468E-02 0.175E-03 0.100E-11 .00000E+00 0.000E+00 0.000E+00
BIGSUB   4        0   13.36293E+02 0.000E+00 0.000E+00 0.121E+01 0.177E+00 0.106E+03 0.000E+00 0.100E-02 0.000E+00 0.207E-01 0.103E-06 0.142E-05 0.227E-06 0.348E-04 0.131E-06 0.580E-08 0.197E-01 0.512E-03 0.100E-11 .00000E+00 0.000E+00 0.000E+00
BIGSUB   5        0   13.58984E+02 0.000E+00 0.000E+00 0.120E+01 0.145E+00 0.399E+02 0.000E+00 0.170E-04 0.000E+00 0.576E-02 0.161E-07 0.113E-07 0.198E-08 0.132E-05 0.482E-08 0.195E-08 0.574E-02 0.169E-03 0.100E-11 .00000E+00 0.000E+00 0.000E+00
BIGSUB   1        0   14.76460E+02 0.000E+00 0.000E+00 0.877E+00 0.118E+00 0.589E+02 0.000E+00 0.466E-05 0.000E+00 0.111E-01 0.541E-08 0.431E-07 0.568E-08 0.482E-06 0.156E-08 0.127E-08 0.111E-01 0.326E-03 0.100E-11 .00000E+00 0.000E+00 0.000E+00
BIGSUB   2        0   14.85095E+02 0.000E+00 0.000E+00 0.877E+00 0.139E+00 0.753E+02 0.000E+00 0.743E-06 0.000E+00 0.989E-02 0.162E-10 0.747E-09 0.747E-09 0.322E-08 0.747E-09 0.149E-08 0.989E-02 0.349E-03 0.100E-11 .00000E+00 0.000E+00 0.000E+00
BIGSUB   3        0   14.34257E+02 0.000E+00 0.000E+00 0.868E+00 0.106E+00 0.435E+02 0.000E+00 0.128E-02 0.000E+00 0.547E-02 0.552E-06 0.496E-05 0.685E-06 0.219E-03 0.378E-06 0.794E-07 0.419E-02 0.156E-03 0.100E-11 .00000E+00 0.000E+00 0.000E+00
BIGSUB   4        0   14.36293E+02 0.000E+00 0.000E+00 0.870E+00 0.124E+00 0.106E+03 0.000E+00 0.848E-03 0.000E+00 0.184E-01 0.870E-07 0.121E-05 0.192E-06 0.295E-04 0.111E-06 0.518E-08 0.176E-01 0.467E-03 0.100E-11 .00000E+00 0.000E+00 0.000E+00
BIGSUB   5        0   14.58984E+02 0.000E+00 0.000E+00 0.865E+00 0.101E+00 0.398E+02 0.000E+00 0.902E-05 0.000E+00 0.514E-02 0.837E-08 0.604E-08 0.119E-08 0.687E-06 0.267E-08 0.143E-08 0.513E-02 0.152E-03 0.100E-11 .00000E+00 0.000E+00 0.000E+00
BIGSUB   1        0   15.76460E+02 0.000E+00 0.000E+00 0.111E+01 0.148E+00 0.588E+02 0.000E+00 0.246E-05 0.000E+00 0.105E-01 0.266E-08 0.214E-07 0.296E-08 0.237E-06 0.938E-09 0.121E-08 0.105E-01 0.308E-03 0.100E-11 .00000E+00 0.000E+00 0.000E+00
BIGSUB   2        0   15.85095E+02 0.000E+00 0.000E+00 0.111E+01 0.174E+00 0.751E+02 0.000E+00 0.743E-06 0.000E+00 0.932E-02 0.614E-11 0.747E-09 0.747E-09 0.142E-08 0.747E-09 0.149E-08 0.931E-02 0.329E-03 0.100E-11 .00000E+00 0.000E+00 0.000E+00
BIGSUB   3        0   15.34257E+02 0.000E+00 0.000E+00 0.110E+01 0.132E+00 0.434E+02 0.000E+00 0.104E-02 0.000E+00 0.481E-02 0.441E-06 0.397E-05 0.549E-06 0.176E-03 0.304E-06 0.635E-07 0.377E-02 0.140E-03 0.100E-11 .00000E+00 0.000E+00 0.000E+00
BIGSUB   4        0   15.36293E+02 0.000E+00 0.000E+00 0.111E+01 0.157E+00 0.106E+03 0.000E+00 0.718E-03 0.000E+00 0.165E-01 0.736E-07 0.102E-05 0.163E-06 0.249E-04 0.944E-07 0.466E-08 0.158E-01 0.427E-03 0.100E-11 .00000E+00 0.000E+00 0.000E+00
BIGSUB   5        0   15.58984E+02 0.000E+00 0.000E+00 0.110E+01 0.127E+00 0.396E+02 0.000E+00 0.485E-05 0.000E+00 0.462E-02 0.436E-08 0.330E-08 0.774E-09 0.358E-06 0.155E-08 0.122E-08 0.462E-02 0.137E-03 0.100E-11 .00000E+00 0.000E+00 0.000E+00
BIGSUB   1        0   16.76460E+02 0.000E+00 0.000E+00 0.106E+01 0.140E+00 0.587E+02 0.000E+00 0.138E-05 0.000E+00 0.991E-02 0.131E-08 0.107E-07 0.163E-08 0.117E-06 0.631E-09 0.121E-08 0.991E-02 0.292E-03 0.100E-11 .00000E+00 0.000E+00 0.000E+00
BIGSUB   2        0   16.85095E+02 0.000E+00 0.000E+00 0.106E+01 0.164E+00 0.749E+02 0.000E+00 0.743E-06 0.000E+00 0.879E-02 0.258E-11 0.747E-09 0.747E-09 0.783E-09 0.747E-09 0.149E-08 0.879E-02 0.311E-03 0.100E-11 .00000E+00 0.000E+00 0.000E+00
BIGSUB   3        0   16.34257E+02 0.000E+00 0.000E+00 0.105E+01 0.125E+00 0.432E+02 0.000E+00 0.842E-03 0.000E+00 0.425E-02 0.352E-06 0.318E-05 0.440E-06 0.142E-03 0.245E-06 0.509E-07 0.341E-02 0.127E-03 0.100E-11 .00000E+00 0.000E+00 0.000E+00
BIGSUB   4        0   16.36293E+02 0.000E+00 0.000E+00 0.105E+01 0.150E+00 0.105E+03 0.000E+00 0.608E-03 0.000E+00 0.148E-01 0.624E-07 0.866E-06 0.138E-06 0.211E-04 0.801E-07 0.421E-08 0.142E-01 0.392E-03 0.100E-11 .00000E+00 0.000E+00 0.000E+00
BIGSUB   5        0   16.58984E+02 0.000E+00 0.000E+00 0.105E+01 0.121E+00 0.395E+02 0.000E+00 0.268E-05 0.000E+00 0.418E-02 0.227E-08 0.188E-08 0.612E-09 0.187E-06 0.961E-09 0.122E-08 0.418E-02 0.125E-03 0.100E-11 .00000E+00 0.000E+00 0.000E+00
BIGSUB   1        0   17.76460E+02 0.000E+00 0.000E+00 0.776E+00 0.101E+00 0.586E+02 0.000E+00 0.848E-06 0.000E+00 0.940E-02 0.643E-09 0.543E-08 0.970E-09 0.574E-07 0.606E-09 0.121E-08 0.940E-02 0.278E-03 0.100E-11 .00000E+00 0.000E+00 0.000E+00
BIGSUB   2        0   17.85095E+02 0.000E+00 0.000E+00 0.775E+00 0.118E+00 0.748E+02 0.000E+00 0.743E-06 0.000E+00 0.832E-02 0.133E-11 0.747E-09 0.747E-09 0.747E-09 0.747E-09 0.149E-08 0.832E-02 0.295E-03 0.100E-11 .00000E+00 0.000E+00 0.000E+00
BIGSUB   3        0   17.34257E+02 0.000E+00 0.000E+00 0.767E+00 0.890E-01 0.432E+02 0.000E+00 0.683E-03 0.000E+00 0.378E-02 0.281E-06 0.254E-05 0.353E-06 0.114E-03 0.197E-06 0.409E-07 0.310E-02 0.115E-03 0.100E-11 .00000E+00 0.000E+00 0.000E+00
BIGSUB   4        0   17.36293E+02 0.000E+00 0.000E+00 0.769E+00 0.107E+00 0.105E+03 0.000E+00 0.515E-03 0.000E+00 0.133E-01 0.528E-07 0.733E-06 0.117E-06 0.179E-04 0.679E-07 0.384E-08 0.128E-01 0.361E-03 0.100E-11 .00000E+00 0.000E+00 0.000E+00
BIGSUB   5        0   17.58984E+02 0.000E+00 0.000E+00 0.765E+00 0.858E-01 0.394E+02 0.000E+00 0.155E-05 0.000E+00 0.381E-02 0.118E-08 0.113E-08 0.612E-09 0.974E-07 0.657E-09 0.122E-08 0.381E-02 0.114E-03 0.100E-11 .00000E+00 0.000E+00 0.000E+00
BIGSUB   1        0   18.76460E+02 0.000E+00 0.000E+00 0.843E+00 0.109E+00 0.584E+02 0.000E+00 0.603E-06 0.000E+00 0.893E-02 0.317E-09 0.284E-08 0.647E-09 0.284E-07 0.606E-09 0.121E-08 0.893E-02 0.264E-03 0.100E-11 .00000E+00 0.000E+00 0.000E+00
BIGSUB   2        0   18.85095E+02 0.000E+00 0.000E+00 0.843E+00 0.127E+00 0.747E+02 0.000E+00 0.743E-06 0.000E+00 0.789E-02 0.888E-12 0.747E-09 0.747E-09 0.747E-09 0.747E-09 0.149E-08 0.789E-02 0.280E-03 0.100E-11 .00000E+00 0.000E+00 0.000E+00
BIGSUB   3        0   18.34257E+02 0.000E+00 0.000E+00 0.834E+00 0.959E-01 0.431E+02 0.000E+00 0.554E-03 0.000E+00 0.339E-02 0.225E-06 0.204E-05 0.283E-06 0.918E-04 0.159E-06 0.329E-07 0.284E-02 0.105E-03 0.100E-11 .00000E+00 0.000E+00 0.000E+00
BIGSUB   4        0   18.36293E+02 0.000E+00 0.000E+00 0.836E+00 0.117E+00 0.105E+03 0.000E+00 0.437E-03 0.000E+00 0.120E-01 0.447E-07 0.621E-06 0.992E-07 0.152E-04 0.577E-07 0.352E-08 0.116E-01 0.333E-03 0.100E-11 .00000E+00 0.000E+00 0.000E+00
BIGSUB   5        0   18.58984E+02 0.000E+00 0.000E+00 0.831E+00 0.929E-01 0.393E+02 0.000E+00 0.964E-06 0.000E+00 0.349E-02 0.617E-09 0.746E-09 0.612E-09 0.509E-07 0.612E-09 0.122E-08 0.349E-02 0.105E-03 0.100E-11 .00000E+00 0.000E+00 0.000E+00
BIGSUB   1        0   19.76460E+02 0.000E+00 0.000E+00 0.134E+01 0.171E+00 0.583E+02 0.000E+00 0.603E-06 0.000E+00 0.850E-02 0.156E-09 0.157E-08 0.606E-09 0.142E-07 0.606E-09 0.121E-08 0.850E-02 0.252E-03 0.100E-11 .00000E+00 0.000E+00 0.000E+00
BIGSUB   2        0   19.85095E+02 0.000E+00 0.000E+00 0.134E+01 0.202E+00 0.745E+02 0.000E+00 0.743E-06 0.000E+00 0.750E-02 0.733E-12 0.747E-09 0.747E-09 0.747E-09 0.747E-09 0.149E-08 0.749E-02 0.267E-03 0.100E-11 .00000E+00 0.000E+00 0.000E+00
BIGSUB   3        0   19.34257E+02 0.000E+00 0.000E+00 0.133E+01 0.153E+00 0.429E+02 0.000E+00 0.449E-03 0.000E+00 0.305E-02 0.180E-06 0.163E-05 0.227E-06 0.738E-04 0.128E-06 0.265E-07 0.261E-02 0.959E-04 0.100E-11 .00000E+00 0.000E+00 0.000E+00
BIGSUB   4        0   19.36293E+02 0.000E+00 0.000E+00 0.133E+01 0.189E+00 0.105E+03 0.000E+00 0.370E-03 0.000E+00 0.109E-01 0.379E-07 0.526E-06 0.841E-07 0.128E-04 0.490E-07 0.325E-08 0.106E-01 0.309E-03 0.100E-11 .00000E+00 0.000E+00 0.000E+00
BIGSUB   5        0   19.58984E+02 0.000E+00 0.000E+00 0.133E+01 0.150E+00 0.392E+02 0.000E+00 0.657E-06 0.000E+00 0.321E-02 0.322E-09 0.612E-09 0.612E-09 0.267E-07 0.612E-09 0.122E-08 0.321E-02 0.971E-04 0.100E-11 .00000E+00 0.000E+00 0.000E+00
BIGSUB   1        0   20.76460E+02 0.000E+00 0.000E+00 0.156E+01 0.210E+00 0.581E+02 0.000E+00 0.603E-06 0.000E+00 0.810E-02 0.770E-10 0.941E-09 0.606E-09 0.713E-08 0.606E-09 0.121E-08 0.810E-02 0.240E-03 0.100E-11 .00000E+00 0.000E+00 0.000E+00
BIGSUB   2        0   20.85095E+02 0.000E+00 0.000E+00 0.156E+01 0.249E+00 0.742E+02 0.000E+00 0.743E-06 0.000E+00 0.713E-02 0.725E-12 0.747E-09 0.747E-09 0.747E-09 0.747E-09 0.149E-08 0.713E-02 0.254E-03 0.100E-11 .00000E+00 0.000E+00 0.000E+00
BIGSUB   3        0   20.34257E+02 0.000E+00 0.000E+00 0.155E+01 0.191E+00 0.427E+02 0.000E+00 0.364E-03 0.000E+00 0.277E-02 0.144E-06 0.131E-05 0.182E-06 0.594E-04 0.103E-06 0.215E-07 0.240E-02 0.882E-04 0.100E-11 .00000E+00 0.000E+00 0.000E+00
BIGSUB   4        0   20.36293E+02 0.000E+00 0.000E+00 0.155E+01 0.239E+00 0.105E+03 0.000E+00 0.313E-03 0.000E+00 0.996E-02 0.321E-07 0.446E-06 0.714E-07 0.109E-04 0.416E-07 0.302E-08 0.965E-02 0.288E-03 0.100E-11 .00000E+00 0.000E+00 0.000E+00
BIGSUB   5        0   20.58984E+02 0.000E+00 0.000E+00 0.154E+01 0.196E+00 0.390E+02 0.000E+00 0.609E-06 0.000E+00 0.297E-02 0.168E-09 0.612E-09 0.612E-09 0.140E-07 0.612E-09 0.122E-08 0.297E-02 0.902E-04 0.100E-11 .00000E+00 0.000E+00 0.000E+00
BIGSUB   1        0   21.76460E+02 0.000E+00 0.000E+00 0.106E+01 0.131E+00 0.579E+02 0.000E+00 0.603E-06 0.000E+00 0.772E-02 0.382E-10 0.632E-09 0.606E-09 0.368E-08 0.606E-09 0.121E-08 0.772E-02 0.229E-03 0.100E-11 .00000E+00 0.000E+00 0.000E+00
BIGSUB   2        0   21.85095E+02 0.000E+00 0.000E+00 0.106E+01 0.157E+00 0.741E+02 0.000E+00 0.743E-06 0.000E+00 0.679E-02 0.725E-12 0.747E-09 0.747E-09 0.747E-09 0.747E-09 0.149E-08 0.679E-02 0.242E-03 0.100E-11 .00000E+00 0.000E+00 0.000E+00
BIGSUB   3        0   21.34257E+02 0.000E+00 0.000E+00 0.105E+01 0.118E+00 0.426E+02 0.000E+00 0.296E-03 0.000E+00 0.252E-02 0.115E-06 0.105E-05 0.146E-06 0.478E-04 0.835E-07 0.174E-07 0.223E-02 0.814E-04 0.100E-11 .00000E+00 0.000E+00 0.000E+00
BIGSUB   4        0   21.36293E+02 0.000E+00 0.000E+00 0.105E+01 0.149E+00 0.105E+03 0.000E+00 0.266E-03 0.000E+00 0.911E-02 0.272E-07 0.378E-06 0.606E-07 0.921E-05 0.354E-07 0.283E-08 0.885E-02 0.268E-03 0.100E-11 .00000E+00 0.000E+00 0.000E+00
BIGSUB   5        0   21.58984E+02 0.000E+00 0.000E+00 0.105E+01 0.119E+00 0.389E+02 0.000E+00 0.609E-06 0.000E+00 0.276E-02 0.875E-10 0.612E-09 0.612E-09 0.747E-08 0.612E-09 0.122E-08 0.276E-02 0.840E-04 0.100E-11 .00000E+00 0.000E+00 0.000E+00
BIGSUB   1        0   22.76460E+02 0.000E+00 0.000E+00 0.978E+00 0.119E+00 0.578E+02 0.000E+00 0.603E-06 0.000E+00 0.737E-02 0.191E-10 0.606E-09 0.606E-09 0.198E-08 0.606E-09 0.121E-08 0.737E-02 0.219E-03 0.100E-11 .00000E+00 0.000E+00 0.000E+00
BIGSUB   2        0   22.85095E+02 0.000E+00 0.000E+00 0.977E+00 0.142E+00 0.739E+02 0.000E+00 0.743E-06 0.000E+00 0.647E-02 0.725E-12 0.747E-09 0.747E-09 0.747E-09 0.747E-09 0.149E-08 0.647E-02 0.231E-03 0.100E-11 .00000E+00 0.000E+00 0.000E+00
BIGSUB   3        0   22.34257E+02 0.000E+00 0.000E+00 0.968E+00 0.104E+00 0.425E+02 0.000E+00 0.240E-03 0.000E+00 0.231E-02 0.918E-07 0.838E-06 0.117E-06 0.385E-04 0.674E-07 0.142E-07 0.207E-02 0.755E-04 0.100E-11 .00000E+00 0.000E+00 0.000E+00
BIGSUB   4        0   22.36293E+02 0.000E+00 0.000E+00 0.970E+00 0.132E+00 0.105E+03 0.000E+00 0.225E-03 0.000E+00 0.837E-02 0.230E-07 0.320E-06 0.515E-07 0.780E-05 0.301E-07 0.266E-08 0.814E-02 0.251E-03 0.100E-11 .00000E+00 0.000E+00 0.000E+00
BIGSUB   5        0   22.58984E+02 0.000E+00 0.000E+00 0.966E+00 0.105E+00 0.388E+02 0.000E+00 0.609E-06 0.000E+00 0.257E-02 0.458E-10 0.612E-09 0.612E-09 0.405E-08 0.612E-09 0.122E-08 0.257E-02 0.785E-04 0.100E-11 .00000E+00 0.000E+00 0.000E+00
BIGSUB   1        0   23.76460E+02 0.000E+00 0.000E+00 0.151E+01 0.187E+00 0.576E+02 0.000E+00 0.603E-06 0.000E+00 0.704E-02 0.968E-11 0.606E-09 0.606E-09 0.114E-08 0.606E-09 0.121E-08 0.704E-02 0.209E-03 0.100E-11 .00000E+00 0.000E+00 0.000E+00
BIGSUB   2        0   23.85095E+02 0.000E+00 0.000E+00 0.151E+01 0.220E+00 0.737E+02 0.000E+00 0.743E-06 0.000E+00 0.618E-02 0.725E-12 0.747E-09 0.747E-09 0.747E-09 0.747E-09 0.149E-08 0.618E-02 0.221E-03 0.100E-11 .00000E+00 0.000E+00 0.000E+00
BIGSUB   3        0   23.34257E+02 0.000E+00 0.000E+00 0.150E+01 0.163E+00 0.423E+02 0.000E+00 0.195E-03 0.000E+00 0.213E-02 0.734E-07 0.671E-06 0.943E-07 0.310E-04 0.545E-07 0.117E-07 0.194E-02 0.702E-04 0.100E-11 .00000E+00 0.000E+00 0.000E+00
BIGSUB   4        0   23.36293E+02 0.000E+00 0.000E+00 0.150E+01 0.206E+00 0.104E+03 0.000E+00 0.191E-03 0.000E+00 0.771E-02 0.195E-07 0.271E-06 0.437E-07 0.660E-05 0.256E-07 0.253E-08 0.752E-02 0.235E-03 0.100E-11 .00000E+00 0.000E+00 0.000E+00
BIGSUB   5        0   23.58984E+02 0.000E+00 0.000E+00 0.149E+01 0.165E+00 0.386E+02 0.000E+00 0.609E-06 0.000E+00 0.240E-02 0.241E-10 0.612E-09 0.612E-09 0.226E-08 0.612E-09 0.122E-08 0.240E-02 0.737E-04 0.100E-11 .00000E+00 0.000E+00 0.000E+00
BIGSUB   1        0   24.76460E+02 0.261E+01 0.000E+00 0.985E+00 0.331E+00 0.592E+02 0.000E+00 0.364E+00 0.000E+00 0.372E+00 0.149E-02 0.380E-02 0.472E-03 0.107E+00 0.123E-03 0.726E-04 0.859E-02 0.360E-03 0.100E-11 .11126E-01 0.516E+00 0.383E-01
BIGSUB   2        0   24.85095E+02 0.000E+00 0.000E+00 0.118E+01 0.163E+00 0.736E+02 0.000E+00 0.743E-06 0.000E+00 0.590E-02 0.725E-12 0.747E-09 0.747E-09 0.747E-09 0.747E-09 0.149E-08 0.590E-02 0.211E-03 0.100E-11 .00000E+00 0.000E+00 0.000E+00
BIGSUB   3        0   24.34257E+02 0.000E+00 0.000E+00 0.117E+01 0.116E+00 0.422E+02 0.000E+00 0.158E-03 0.000E+00 0.197E-02 0.587E-07 0.538E-06 0.758E-07 0.250E-04 0.441E-07 0.964E-08 0.181E-02 0.654E-04 0.100E-11 .00000E+00 0.000E+00 0.000E+00
BIGSUB   4        0   24.36293E+02 0.000E+00 0.000E+00 0.117E+01 0.149E+00 0.104E+03 0.000E+00 0.162E-03 0.000E+00 0.712E-02 0.165E-07 0.230E-06 0.372E-07 0.559E-05 0.218E-07 0.241E-08 0.696E-02 0.221E-03 0.100E-11 .00000E+00 0.000E+00 0.000E+00
BIGSUB   5        0   24.58984E+02 0.000E+00 0.000E+00 0.116E+01 0.119E+00 0.385E+02 0.000E+00 0.609E-06 0.000E+00 0.226E-02 0.127E-10 0.612E-09 0.612E-09 0.134E-08 0.612E-09 0.122E-08 0.226E-02 0.693E-04 0.100E-11 .00000E+00 0.000E+00 0.000E+00
BIGSUB   1        0   25.76460E+02 0.422E+01 0.000E+00 0.110E+01 0.383E+00 0.609E+02 0.000E+00 0.110E+01 0.000E+00 0.113E+01 0.364E-02 0.673E-02 0.836E-03 0.163E+00 0.363E-03 0.189E-03 0.295E-01 0.110E-02 0.100E-11 .13377E-01 0.790E+00 0.126E+00
BIGSUB   2        0   25.85095E+02 0.744E+01 0.000E+00 0.110E+01 0.423E+00 0.759E+02 0.000E+00 0.335E+01 0.000E+00 0.337E+01 0.529E-01 0.433E-01 0.592E-02 0.314E+00 0.978E-03 0.196E-02 0.166E-01 0.516E-03 0.100E-11 .15438E-01 0.512E+01 0.370E+00
BIGSUB   3        0   25.34257E+02 0.432E+01 0.000E+00 0.109E+01 0.416E+00 0.442E+02 0.000E+00 0.149E+01 0.000E+00 0.150E+01 0.300E-01 0.145E-01 0.204E-02 0.378E+00 0.464E-03 0.105E-02 0.927E-02 0.515E-03 0.100E-11 .51270E-01 0.180E+01 0.165E+00
BIGSUB   4        0   25.36293E+02 0.432E+01 0.000E+00 0.110E+01 0.483E+00 0.106E+03 0.000E+00 0.119E+01 0.000E+00 0.122E+01 0.705E-02 0.126E-01 0.165E-02 0.289E+00 0.396E-03 0.426E-03 0.263E-01 0.120E-02 0.100E-11 .48632E-01 0.141E+01 0.131E+00
BIGSUB   5        0   25.58984E+02 0.432E+01 0.000E+00 0.109E+01 0.422E+00 0.404E+02 0.000E+00 0.102E+01 0.000E+00 0.103E+01 0.572E-03 0.109E-02 0.140E-03 0.198E+00 0.311E-03 0.522E-04 0.124E-01 0.676E-03 0.100E-11 .99703E-02 0.423E-01 0.118E+00
BIGSUB   1        0   26.76460E+02 0.200E+02 0.000E+00 0.519E+00 0.240E+00 0.637E+02 0.000E+00 0.104E+02 0.000E+00 0.104E+02 0.677E-01 0.113E+00 0.139E-01 0.202E+00 0.293E-02 0.287E-02 0.577E-01 0.110E-02 0.100E-11 .14090E-01 0.154E+02 0.111E+01
BIGSUB   2        0   26.85095E+02 0.180E+02 0.000E+00 0.519E+00 0.264E+00 0.786E+02 0.000E+00 0.116E+02 0.000E+00 0.117E+02 0.189E+00 0.183E+00 0.247E-01 0.329E+00 0.338E-02 0.704E-02 0.472E-01 0.701E-03 0.100E-11 .16067E-01 0.241E+02 0.126E+01
BIGSUB   3        0   26.34257E+02 0.123E+02 0.000E+00 0.514E+00 0.276E+00 0.467E+02 0.000E+00 0.759E+01 0.000E+00 0.765E+01 0.185E+00 0.734E-01 0.105E-01 0.429E+00 0.226E-02 0.588E-02 0.556E-01 0.111E-02 0.100E-11 .55232E-01 0.892E+01 0.823E+00
BIGSUB   4        0   26.36293E+02 0.123E+02 0.000E+00 0.515E+00 0.326E+00 0.110E+03 0.000E+00 0.622E+01 0.000E+00 0.640E+01 0.624E-01 0.849E-01 0.112E-01 0.330E+00 0.194E-02 0.312E-02 0.183E+00 0.582E-02 0.100E-11 .51376E-01 0.117E+02 0.665E+00
BIGSUB   5        0   26.58984E+02 0.123E+02 0.000E+00 0.513E+00 0.290E+00 0.430E+02 0.000E+00 0.565E+01 0.000E+00 0.572E+01 0.269E-02 0.255E-02 0.345E-03 0.267E+00 0.162E-02 0.240E-03 0.708E-01 0.127E-02 0.100E-11 .10873E-01 0.691E-01 0.646E+00
BIGSUB   1        0   27.76460E+02 0.211E+01 0.000E+00 0.560E+00 0.254E+00 0.650E+02 0.000E+00 0.401E+01 0.000E+00 0.408E+01 0.898E-02 0.314E-01 0.391E-02 0.997E-01 0.125E-02 0.550E-03 0.650E-01 0.134E-02 0.100E-11 .87218E-01 0.519E+01 0.431E+00
BIGSUB   2        0   27.85095E+02 0.211E+01 0.000E+00 0.560E+00 0.279E+00 0.798E+02 0.000E+00 0.312E+01 0.000E+00 0.317E+01 0.157E-01 0.370E-01 0.472E-02 0.119E+00 0.909E-03 0.809E-03 0.565E-01 0.118E-02 0.100E-11 .72542E-01 0.501E+01 0.330E+00
BIGSUB   3        0   27.34257E+02 0.121E+01 0.000E+00 0.555E+00 0.290E+00 0.475E+02 0.000E+00 0.117E+01 0.000E+00 0.123E+01 0.114E-01 0.890E-02 0.120E-02 0.721E-01 0.366E-03 0.434E-03 0.615E-01 0.176E-02 0.100E-11 .12160E+01 0.224E+01 0.129E+00
BIGSUB   4        0   27.36293E+02 0.121E+01 0.000E+00 0.556E+00 0.340E+00 0.111E+03 0.000E+00 0.704E+00 0.000E+00 0.881E+00 0.317E-02 0.646E-02 0.832E-03 0.404E-01 0.223E-03 0.181E-03 0.177E+00 0.580E-02 0.100E-11 .88923E+00 0.134E+01 0.771E-01
BIGSUB   5        0   27.58984E+02 0.121E+01 0.000E+00 0.553E+00 0.302E+00 0.437E+02 0.000E+00 0.206E+01 0.000E+00 0.214E+01 0.132E-02 0.863E-03 0.123E-03 0.104E+00 0.594E-03 0.117E-03 0.774E-01 0.191E-02 0.100E-11 .78211E+00 0.204E+00 0.236E+00
BIGSUB   1        0   28.76460E+02 0.844E+01 0.000E+00 0.818E+00 0.348E+00 0.673E+02 0.000E+00 0.492E+01 0.000E+00 0.501E+01 0.224E-01 0.506E-01 0.624E-02 0.928E-01 0.148E-02 0.972E-03 0.840E-01 0.130E-02 0.100E-11 .15403E-01 0.655E+01 0.504E+00
BIGSUB   2        0   28.85095E+02 0.402E+01 0.000E+00 0.818E+00 0.377E+00 0.816E+02 0.000E+00 0.201E+01 0.000E+00 0.209E+01 0.122E-01 0.214E-01 0.280E-02 0.823E-01 0.635E-03 0.580E-03 0.712E-01 0.130E-02 0.100E-11 .17419E-01 0.177E+01 0.213E+00
BIGSUB   3        0   28.34257E+02 0.332E+01 0.000E+00 0.811E+00 0.389E+00 0.490E+02 0.000E+00 0.114E+01 0.000E+00 0.122E+01 0.146E-01 0.691E-02 0.978E-03 0.846E-01 0.361E-03 0.545E-03 0.835E-01 0.214E-02 0.100E-11 .73817E-01 0.590E+00 0.123E+00
BIGSUB   4        0   28.36293E+02 0.332E+01 0.000E+00 0.813E+00 0.451E+00 0.112E+03 0.000E+00 0.775E+00 0.000E+00 0.983E+00 0.851E-02 0.100E-01 0.133E-02 0.611E-01 0.274E-03 0.381E-03 0.208E+00 0.644E-02 0.100E-11 .53891E-01 0.141E+01 0.832E-01
BIGSUB   5        0   28.58984E+02 0.332E+01 0.000E+00 0.810E+00 0.396E+00 0.453E+02 0.000E+00 0.150E+01 0.000E+00 0.161E+01 0.125E-02 0.116E-02 0.158E-03 0.828E-01 0.451E-03 0.111E-03 0.104E+00 0.227E-02 0.100E-11 .15680E-01 0.359E-01 0.168E+00
BIGSUB   1        0   29.76460E+02 0.352E+01 0.000E+00 0.289E+00 0.179E+00 0.691E+02 0.000E+00 0.270E+01 0.000E+00 0.279E+01 0.560E-02 0.211E-01 0.263E-02 0.576E-01 0.848E-03 0.376E-03 0.924E-01 0.130E-02 0.100E-11 .22843E-01 0.152E+01 0.291E+00
BIGSUB   2        0   29.85095E+02 0.995E+01 0.000E+00 0.289E+00 0.191E+00 0.841E+02 0.000E+00 0.567E+01 0.000E+00 0.576E+01 0.703E-01 0.527E-01 0.718E-02 0.778E-01 0.166E-02 0.251E-02 0.909E-01 0.122E-02 0.100E-11 .15932E-01 0.576E+01 0.590E+00
BIGSUB   3        0   29.34257E+02 0.593E+01 0.000E+00 0.286E+00 0.203E+00 0.512E+02 0.000E+00 0.282E+01 0.000E+00 0.293E+01 0.623E-01 0.254E-01 0.361E-02 0.807E-01 0.857E-03 0.199E-02 0.110E+00 0.208E-02 0.100E-11 .60752E-01 0.293E+01 0.298E+00
BIGSUB   4        0   29.36293E+02 0.593E+01 0.000E+00 0.287E+00 0.229E+00 0.115E+03 0.000E+00 0.222E+01 0.000E+00 0.249E+01 0.163E-01 0.233E-01 0.312E-02 0.620E-01 0.710E-03 0.105E-02 0.270E+00 0.726E-02 0.100E-11 .52547E-01 0.290E+01 0.231E+00
BIGSUB   5        0   29.58984E+02 0.593E+01 0.000E+00 0.286E+00 0.215E+00 0.474E+02 0.000E+00 0.252E+01 0.000E+00 0.266E+01 0.211E-02 0.184E-02 0.251E-03 0.719E-01 0.735E-03 0.188E-03 0.136E+00 0.217E-02 0.100E-11 .11709E-01 0.480E-01 0.284E+00
BIGSUB   1        0   30.76460E+02 0.330E+02 0.000E+00 0.327E+00 0.193E+00 0.721E+02 0.000E+00 0.187E+02 0.000E+00 0.188E+02 0.113E+00 0.194E+00 0.238E-01 0.877E-01 0.535E-02 0.471E-02 0.114E+00 0.117E-02 0.100E-11 .14134E-01 0.328E+02 0.202E+01
BIGSUB   2        0   30.85095E+02 0.335E+02 0.000E+00 0.327E+00 0.208E+00 0.870E+02 0.000E+00 0.235E+02 0.000E+00 0.236E+02 0.316E+00 0.328E+00 0.440E-01 0.115E+00 0.687E-02 0.117E-01 0.114E+00 0.111E-02 0.100E-11 .15983E-01 0.488E+02 0.256E+01
BIGSUB   3        0   30.34257E+02 0.255E+02 0.000E+00 0.323E+00 0.227E+00 0.541E+02 0.000E+00 0.186E+02 0.000E+00 0.187E+02 0.533E+00 0.224E+00 0.313E-01 0.111E+00 0.549E-02 0.164E-01 0.147E+00 0.182E-02 0.100E-11 .56016E-01 0.282E+02 0.201E+01
BIGSUB   4        0   30.36293E+02 0.255E+02 0.000E+00 0.324E+00 0.257E+00 0.120E+03 0.000E+00 0.156E+02 0.000E+00 0.161E+02 0.111E+00 0.194E+00 0.252E-01 0.890E-01 0.489E-02 0.625E-02 0.537E+00 0.999E-02 0.100E-11 .54028E-01 0.242E+02 0.171E+01
BIGSUB   5        0   30.58984E+02 0.255E+02 0.000E+00 0.322E+00 0.238E+00 0.503E+02 0.000E+00 0.142E+02 0.000E+00 0.144E+02 0.120E-01 0.204E-01 0.265E-02 0.916E-01 0.402E-02 0.110E-02 0.181E+00 0.189E-02 0.100E-11 .11082E-01 0.795E+00 0.162E+01
BIGSUB   1        0   31.76460E+02 0.247E+02 0.000E+00 0.356E+00 0.206E+00 0.750E+02 0.000E+00 0.197E+02 0.000E+00 0.198E+02 0.143E+00 0.250E+00 0.308E-01 0.111E+00 0.573E-02 0.540E-02 0.132E+00 0.115E-02 0.100E-11 .16609E-01 0.392E+02 0.215E+01
BIGSUB   2        0   31.85095E+02 0.161E+02 0.000E+00 0.356E+00 0.222E+00 0.897E+02 0.000E+00 0.151E+02 0.000E+00 0.153E+02 0.149E+00 0.141E+00 0.187E-01 0.116E+00 0.440E-02 0.529E-02 0.131E+00 0.107E-02 0.100E-11 .19366E-01 0.143E+02 0.168E+01
BIGSUB   3        0   31.34257E+02 0.178E+02 0.000E+00 0.353E+00 0.249E+00 0.569E+02 0.000E+00 0.147E+02 0.000E+00 0.149E+02 0.243E+00 0.187E+00 0.248E-01 0.114E+00 0.434E-02 0.905E-02 0.175E+00 0.166E-02 0.100E-11 .67935E-01 0.229E+02 0.161E+01
BIGSUB   4        0   31.36293E+02 0.178E+02 0.000E+00 0.353E+00 0.278E+00 0.125E+03 0.142E+00 0.120E+02 0.000E+00 0.127E+02 0.144E+00 0.174E+00 0.228E-01 0.900E-01 0.376E-02 0.631E-02 0.675E+00 0.101E-01 0.100E-11 .59721E-01 0.260E+02 0.137E+01
BIGSUB   5        0   31.58984E+02 0.178E+02 0.000E+00 0.352E+00 0.258E+00 0.530E+02 0.000E+00 0.138E+02 0.000E+00 0.140E+02 0.196E-01 0.220E-01 0.293E-02 0.998E-01 0.388E-02 0.177E-02 0.215E+00 0.172E-02 0.100E-11 .14542E-01 0.754E+00 0.159E+01
BIGSUB   1        0   32.76460E+02 0.114E+02 0.000E+00 0.201E+00 0.153E+00 0.775E+02 0.000E+00 0.125E+02 0.000E+00 0.127E+02 0.439E-01 0.127E+00 0.157E-01 0.105E+00 0.377E-02 0.233E-02 0.161E+00 0.313E-02 0.100E-11 .20677E-01 0.129E+02 0.143E+01
BIGSUB   2        0   32.85095E+02 0.121E+02 0.000E+00 0.201E+00 0.157E+00 0.923E+02 0.000E+00 0.105E+02 0.000E+00 0.106E+02 0.928E-01 0.107E+00 0.141E-01 0.104E+00 0.306E-02 0.344E-02 0.147E+00 0.130E-02 0.100E-11 .18802E-01 0.139E+02 0.121E+01
BIGSUB   3        0   32.34257E+02 0.111E+02 0.000E+00 0.199E+00 0.165E+00 0.595E+02 0.000E+00 0.891E+01 0.000E+00 0.910E+01 0.106E+00 0.742E-01 0.992E-02 0.960E-01 0.263E-02 0.414E-02 0.196E+00 0.169E-02 0.100E-11 .78400E-01 0.706E+01 0.103E+01
BIGSUB   4        0   32.36293E+02 0.111E+02 0.000E+00 0.199E+00 0.172E+00 0.127E+03 0.939E+00 0.703E+01 0.000E+00 0.780E+01 0.669E-01 0.923E-01 0.122E-01 0.733E-01 0.220E-02 0.349E-02 0.766E+00 0.105E-01 0.100E-11 .62627E-01 0.116E+02 0.877E+00
BIGSUB   5        0   32.58984E+02 0.111E+02 0.000E+00 0.198E+00 0.168E+00 0.555E+02 0.000E+00 0.998E+01 0.000E+00 0.102E+02 0.154E-01 0.129E-01 0.178E-02 0.918E-01 0.283E-02 0.138E-02 0.240E+00 0.178E-02 0.100E-11 .17213E-01 0.323E+00 0.120E+01
BIGSUB   1        0   33.76460E+02 0.784E+01 0.000E+00 0.336E+00 0.201E+00 0.798E+02 0.000E+00 0.809E+01 0.000E+00 0.827E+01 0.286E-01 0.916E-01 0.113E-01 0.853E-01 0.246E-02 0.150E-02 0.185E+00 0.468E-02 0.100E-11 .20449E-01 0.991E+01 0.915E+00
BIGSUB   2        0   33.85095E+02 0.100E+02 0.000E+00 0.335E+00 0.217E+00 0.947E+02 0.000E+00 0.786E+01 0.000E+00 0.804E+01 0.877E-01 0.592E-01 0.799E-02 0.869E-01 0.232E-02 0.267E-02 0.177E+00 0.316E-02 0.100E-11 .18147E-01 0.659E+01 0.895E+00
BIGSUB   3        0   33.34257E+02 0.703E+01 0.000E+00 0.332E+00 0.244E+00 0.617E+02 0.000E+00 0.491E+01 0.000E+00 0.512E+01 0.827E-01 0.318E-01 0.446E-02 0.678E-01 0.149E-02 0.246E-02 0.213E+00 0.201E-02 0.100E-11 .90950E-01 0.346E+01 0.562E+00
BIGSUB   4        0   33.36293E+02 0.703E+01 0.000E+00 0.332E+00 0.270E+00 0.128E+03 0.728E+00 0.373E+01 0.000E+00 0.453E+01 0.417E-01 0.518E-01 0.681E-02 0.493E-01 0.117E-02 0.192E-02 0.797E+00 0.104E-01 0.100E-11 .64454E-01 0.725E+01 0.497E+00
BIGSUB   5        0   33.58984E+02 0.703E+01 0.000E+00 0.331E+00 0.245E+00 0.577E+02 0.000E+00 0.637E+01 0.000E+00 0.663E+01 0.860E-02 0.547E-02 0.779E-03 0.725E-01 0.188E-02 0.769E-03 0.262E+00 0.241E-02 0.100E-11 .18339E-01 0.565E-01 0.761E+00
BIGSUB   1        0   34.76460E+02 0.000E+00 0.000E+00 0.574E+00 0.184E+00 0.797E+02 0.000E+00 0.345E+01 0.000E+00 0.361E+01 0.568E-02 0.349E-01 0.433E-02 0.357E-01 0.107E-02 0.476E-03 0.158E+00 0.387E-02 0.100E-11 .00000E+00 0.000E+00 0.000E+00
BIGSUB   2        0   34.85095E+02 0.000E+00 0.000E+00 0.573E+00 0.200E+00 0.945E+02 0.000E+00 0.212E+01 0.000E+00 0.227E+01 0.474E-02 0.128E-01 0.162E-02 0.232E-01 0.616E-03 0.240E-03 0.151E+00 0.263E-02 0.100E-11 .00000E+00 0.000E+00 0.000E+00
BIGSUB   3        0   34.34257E+02 0.000E+00 0.000E+00 0.566E+00 0.229E+00 0.615E+02 0.000E+00 0.932E+00 0.000E+00 0.111E+01 0.457E-02 0.414E-02 0.553E-03 0.128E-01 0.276E-03 0.201E-03 0.177E+00 0.168E-02 0.100E-11 .00000E+00 0.000E+00 0.000E+00
BIGSUB   4        0   34.36293E+02 0.000E+00 0.000E+00 0.567E+00 0.231E+00 0.128E+03 0.600E-01 0.491E+00 0.000E+00 0.117E+01 0.152E-02 0.413E-02 0.525E-03 0.611E-02 0.142E-03 0.956E-04 0.683E+00 0.894E-02 0.100E-11 .00000E+00 0.000E+00 0.000E+00
BIGSUB   5        0   34.58984E+02 0.000E+00 0.000E+00 0.563E+00 0.199E+00 0.575E+02 0.000E+00 0.278E+01 0.000E+00 0.300E+01 0.408E-02 0.219E-02 0.322E-03 0.299E-01 0.802E-03 0.364E-03 0.215E+00 0.197E-02 0.100E-11 .00000E+00 0.000E+00 0.000E+00
BIGSUB   1        0   35.76460E+02 0.000E+00 0.000E+00 0.570E+00 0.178E+00 0.795E+02 0.000E+00 0.156E+01 0.000E+00 0.170E+01 0.233E-02 0.166E-01 0.207E-02 0.161E-01 0.487E-03 0.213E-03 0.136E+00 0.321E-02 0.100E-11 .00000E+00 0.000E+00 0.000E+00
BIGSUB   2        0   35.85095E+02 0.764E+01 0.000E+00 0.123E-01 0.122E-01 0.969E+02 0.000E+00 0.415E+01 0.000E+00 0.432E+01 0.461E-01 0.517E-01 0.683E-02 0.570E-01 0.122E-02 0.165E-02 0.175E+00 0.375E-02 0.100E-11 .15710E-01 0.809E+01 0.465E+00
BIGSUB   3        0   35.34257E+02 0.734E+01 0.000E+00 0.128E-01 0.128E-01 0.638E+02 0.000E+00 0.386E+01 0.000E+00 0.407E+01 0.741E-01 0.380E-01 0.517E-02 0.500E-01 0.117E-02 0.233E-02 0.209E+00 0.332E-02 0.100E-11 .71246E-01 0.510E+01 0.431E+00
BIGSUB   4        0   35.36293E+02 0.734E+01 0.000E+00 0.129E-01 0.125E-01 0.130E+03 0.662E+00 0.306E+01 0.000E+00 0.378E+01 0.284E-01 0.351E-01 0.458E-02 0.369E-01 0.980E-03 0.123E-02 0.725E+00 0.915E-02 0.100E-11 .55008E-01 0.575E+01 0.403E+00
BIGSUB   5        0   35.58984E+02 0.734E+01 0.000E+00 0.131E-01 0.131E-01 0.597E+02 0.000E+00 0.393E+01 0.000E+00 0.419E+01 0.524E-02 0.356E-02 0.501E-03 0.471E-01 0.114E-02 0.469E-03 0.259E+00 0.431E-02 0.100E-11 .11873E-01 0.744E-01 0.470E+00
BIGSUB   1        0   36.76460E+02 0.000E+00 0.000E+00 0.126E+01 0.387E+00 0.791E+02 0.000E+00 0.723E+00 0.000E+00 0.840E+00 0.108E-02 0.815E-02 0.101E-02 0.741E-02 0.226E-03 0.100E-03 0.117E+00 0.267E-02 0.100E-11 .00000E+00 0.000E+00 0.000E+00
BIGSUB   2        0   36.85095E+02 0.482E+01 0.000E+00 0.876E+00 0.418E+00 0.986E+02 0.000E+00 0.282E+01 0.000E+00 0.301E+01 0.259E-01 0.257E-01 0.337E-02 0.427E-01 0.838E-03 0.901E-03 0.195E+00 0.498E-02 0.100E-11 .17308E-01 0.230E+01 0.321E+00
BIGSUB   3        0   36.34257E+02 0.281E+01 0.000E+00 0.868E+00 0.493E+00 0.650E+02 0.000E+00 0.130E+01 0.000E+00 0.152E+01 0.209E-01 0.997E-02 0.136E-02 0.235E-01 0.432E-03 0.651E-03 0.226E+00 0.467E-02 0.100E-11 .16384E+00 0.119E+01 0.159E+00
BIGSUB   4        0   36.36293E+02 0.281E+01 0.000E+00 0.870E+00 0.531E+00 0.131E+03 0.329E+00 0.904E+00 0.000E+00 0.159E+01 0.536E-02 0.785E-02 0.102E-02 0.151E-01 0.309E-03 0.244E-03 0.690E+00 0.867E-02 0.100E-11 .83363E-01 0.104E+01 0.112E+00
BIGSUB   5        0   36.58984E+02 0.281E+01 0.000E+00 0.866E+00 0.451E+00 0.609E+02 0.000E+00 0.198E+01 0.000E+00 0.226E+01 0.300E-02 0.215E-02 0.301E-03 0.295E-01 0.622E-03 0.269E-03 0.282E+00 0.626E-02 0.100E-11 .22356E-01 0.534E-01 0.249E+00
BIGSUB   1        0   37.76460E+02 0.000E+00 0.000E+00 0.130E+01 0.387E+00 0.787E+02 0.000E+00 0.339E+00 0.000E+00 0.441E+00 0.514E-03 0.400E-02 0.496E-03 0.346E-02 0.106E-03 0.477E-04 0.102E+00 0.223E-02 0.100E-11 .00000E+00 0.000E+00 0.000E+00
BIGSUB   2        0   37.85095E+02 0.000E+00 0.000E+00 0.130E+01 0.450E+00 0.981E+02 0.000E+00 0.760E+00 0.000E+00 0.928E+00 0.189E-02 0.692E-02 0.867E-03 0.115E-01 0.223E-03 0.116E-03 0.167E+00 0.414E-02 0.100E-11 .00000E+00 0.000E+00 0.000E+00
BIGSUB   3        0   37.34257E+02 0.000E+00 0.000E+00 0.128E+01 0.534E+00 0.645E+02 0.000E+00 0.309E+00 0.000E+00 0.496E+00 0.139E-02 0.172E-02 0.226E-03 0.507E-02 0.930E-04 0.670E-04 0.188E+00 0.383E-02 0.100E-11 .00000E+00 0.000E+00 0.000E+00
BIGSUB   4        0   37.36293E+02 0.000E+00 0.000E+00 0.129E+01 0.515E+00 0.130E+03 0.272E-01 0.149E+00 0.000E+00 0.739E+00 0.190E-03 0.558E-03 0.715E-04 0.201E-02 0.406E-04 0.116E-04 0.591E+00 0.743E-02 0.100E-11 .00000E+00 0.000E+00 0.000E+00
BIGSUB   5        0   37.58984E+02 0.000E+00 0.000E+00 0.128E+01 0.438E+00 0.605E+02 0.000E+00 0.941E+00 0.000E+00 0.117E+01 0.140E-02 0.779E-03 0.113E-03 0.127E-01 0.274E-03 0.125E-03 0.231E+00 0.509E-02 0.100E-11 .00000E+00 0.000E+00 0.000E+00
BIGSUB   1        0   38.76460E+02 0.000E+00 0.000E+00 0.807E+00 0.236E+00 0.785E+02 0.000E+00 0.160E+00 0.000E+00 0.250E+00 0.246E-03 0.196E-02 0.244E-03 0.163E-02 0.504E-04 0.229E-04 0.896E-01 0.188E-02 0.100E-11 .00000E+00 0.000E+00 0.000E+00
BIGSUB   2        0   38.85095E+02 0.181E+01 0.000E+00 0.388E+00 0.241E+00 0.992E+02 0.000E+00 0.388E+00 0.000E+00 0.550E+00 0.309E-02 0.470E-02 0.608E-03 0.879E-02 0.129E-03 0.125E-03 0.162E+00 0.404E-02 0.100E-11 .11511E-01 0.451E+00 0.633E-01
BIGSUB   3        0   38.34257E+02 0.201E+00 0.000E+00 0.383E+00 0.239E+00 0.645E+02 0.000E+00 0.976E-01 0.000E+00 0.254E+00 0.207E-03 0.748E-03 0.979E-04 0.186E-02 0.341E-04 0.193E-04 0.156E+00 0.316E-02 0.100E-11 .00000E+00 0.000E+00 0.000E+00
BIGSUB   4        0   38.36293E+02 0.201E+00 0.000E+00 0.384E+00 0.242E+00 0.130E+03 0.224E-02 0.394E-01 0.000E+00 0.545E+00 0.161E-04 0.103E-03 0.137E-04 0.432E-03 0.871E-05 0.136E-05 0.505E+00 0.635E-02 0.100E-11 .00000E+00 0.000E+00 0.000E+00
BIGSUB   5        0   38.58984E+02 0.201E+00 0.000E+00 0.382E+00 0.234E+00 0.605E+02 0.000E+00 0.429E+00 0.000E+00 0.619E+00 0.694E-03 0.357E-03 0.528E-04 0.615E-02 0.134E-03 0.622E-04 0.190E+00 0.414E-02 0.100E-11 .00000E+00 0.000E+00 0.000E+00
BIGSUB   1        0   39.76460E+02 0.000E+00 0.000E+00 0.533E+00 0.156E+00 0.783E+02 0.000E+00 0.766E-01 0.000E+00 0.156E+00 0.119E-03 0.965E-03 0.120E-03 0.777E-03 0.241E-04 0.110E-04 0.792E-01 0.159E-02 0.100E-11 .00000E+00 0.000E+00 0.000E+00
BIGSUB   2        0   39.85095E+02 0.000E+00 0.000E+00 0.533E+00 0.191E+00 0.990E+02 0.000E+00 0.126E+00 0.000E+00 0.266E+00 0.261E-03 0.122E-02 0.152E-03 0.248E-02 0.375E-04 0.179E-04 0.140E+00 0.340E-02 0.100E-11 .00000E+00 0.000E+00 0.000E+00
BIGSUB   3        0   39.34257E+02 0.000E+00 0.000E+00 0.526E+00 0.205E+00 0.643E+02 0.000E+00 0.642E-01 0.000E+00 0.194E+00 0.840E-04 0.527E-03 0.688E-04 0.106E-02 0.194E-04 0.113E-04 0.130E+00 0.260E-02 0.100E-11 .00000E+00 0.000E+00 0.000E+00
BIGSUB   4        0   39.36293E+02 0.000E+00 0.000E+00 0.527E+00 0.194E+00 0.130E+03 0.185E-03 0.218E-01 0.000E+00 0.455E+00 0.458E-05 0.419E-04 0.598E-05 0.176E-03 0.350E-05 0.390E-06 0.433E+00 0.543E-02 0.100E-11 .00000E+00 0.000E+00 0.000E+00
BIGSUB   5        0   39.58984E+02 0.000E+00 0.000E+00 0.523E+00 0.174E+00 0.603E+02 0.000E+00 0.229E+00 0.000E+00 0.385E+00 0.353E-03 0.178E-03 0.265E-04 0.310E-02 0.676E-04 0.316E-04 0.156E+00 0.337E-02 0.100E-11 .00000E+00 0.000E+00 0.000E+00
BIGSUB   1        0   40.76460E+02 0.000E+00 0.000E+00 0.108E+01 0.314E+00 0.780E+02 0.000E+00 0.368E-01 0.000E+00 0.107E+00 0.573E-04 0.474E-03 0.588E-04 0.373E-03 0.116E-04 0.533E-05 0.705E-01 0.135E-02 0.100E-11 .00000E+00 0.000E+00 0.000E+00
BIGSUB   2        0   40.85095E+02 0.000E+00 0.000E+00 0.108E+01 0.378E+00 0.987E+02 0.000E+00 0.407E-01 0.000E+00 0.162E+00 0.622E-04 0.415E-03 0.516E-04 0.788E-03 0.121E-04 0.521E-05 0.122E+00 0.287E-02 0.100E-11 .00000E+00 0.000E+00 0.000E+00
BIGSUB   3        0   40.34257E+02 0.000E+00 0.000E+00 0.107E+01 0.404E+00 0.639E+02 0.000E+00 0.460E-01 0.000E+00 0.155E+00 0.562E-04 0.411E-03 0.537E-04 0.752E-03 0.139E-04 0.835E-05 0.109E+00 0.215E-02 0.100E-11 .00000E+00 0.000E+00 0.000E+00
BIGSUB   4        0   40.36293E+02 0.000E+00 0.000E+00 0.107E+01 0.377E+00 0.130E+03 0.134E-04 0.163E-01 0.000E+00 0.387E+00 0.271E-05 0.280E-04 0.414E-05 0.118E-03 0.232E-05 0.216E-06 0.371E+00 0.464E-02 0.100E-11 .00000E+00 0.000E+00 0.000E+00
BIGSUB   5        0   40.58984E+02 0.000E+00 0.000E+00 0.107E+01 0.344E+00 0.600E+02 0.000E+00 0.117E+00 0.000E+00 0.246E+00 0.182E-03 0.915E-04 0.136E-04 0.159E-02 0.347E-04 0.163E-04 0.129E+00 0.274E-02 0.100E-11 .00000E+00 0.000E+00 0.000E+00
BIGSUB   1        0   41.76460E+02 0.000E+00 0.000E+00 0.981E+00 0.283E+00 0.777E+02 0.000E+00 0.178E-01 0.000E+00 0.810E-01 0.278E-04 0.233E-03 0.289E-04 0.180E-03 0.561E-05 0.259E-05 0.632E-01 0.115E-02 0.100E-11 .00000E+00 0.000E+00 0.000E+00
BIGSUB   2        0   41.85095E+02 0.000E+00 0.000E+00 0.980E+00 0.331E+00 0.983E+02 0.000E+00 0.135E-01 0.000E+00 0.120E+00 0.202E-04 0.145E-03 0.180E-04 0.259E-03 0.403E-05 0.174E-05 0.107E+00 0.245E-02 0.100E-11 .00000E+00 0.000E+00 0.000E+00
BIGSUB   3        0   41.34257E+02 0.000E+00 0.000E+00 0.970E+00 0.354E+00 0.635E+02 0.000E+00 0.358E-01 0.000E+00 0.128E+00 0.430E-04 0.326E-03 0.426E-04 0.582E-03 0.107E-04 0.653E-05 0.917E-01 0.178E-02 0.100E-11 .00000E+00 0.000E+00 0.000E+00
BIGSUB   4        0   41.36293E+02 0.000E+00 0.000E+00 0.972E+00 0.327E+00 0.129E+03 0.447E-05 0.134E-01 0.000E+00 0.332E+00 0.210E-05 0.224E-04 0.334E-05 0.942E-04 0.185E-05 0.164E-06 0.318E+00 0.398E-02 0.100E-11 .00000E+00 0.000E+00 0.000E+00
BIGSUB   5        0   41.58984E+02 0.000E+00 0.000E+00 0.967E+00 0.308E+00 0.597E+02 0.000E+00 0.606E-01 0.000E+00 0.167E+00 0.941E-04 0.474E-04 0.704E-05 0.822E-03 0.180E-04 0.843E-05 0.106E+00 0.224E-02 0.100E-11 .00000E+00 0.000E+00 0.000E+00
BIGSUB   1        0   42.76460E+02 0.000E+00 0.000E+00 0.930E+00 0.267E+00 0.775E+02 0.000E+00 0.863E-02 0.000E+00 0.657E-01 0.136E-04 0.115E-03 0.142E-04 0.871E-04 0.273E-05 0.126E-05 0.571E-01 0.991E-03 0.100E-11 .00000E+00 0.000E+00 0.000E+00
BIGSUB   2        0   42.85095E+02 0.000E+00 0.000E+00 0.929E+00 0.306E+00 0.980E+02 0.000E+00 0.455E-02 0.000E+00 0.988E-01 0.685E-05 0.510E-04 0.633E-05 0.870E-04 0.136E-05 0.591E-06 0.943E-01 0.209E-02 0.100E-11 .00000E+00 0.000E+00 0.000E+00
BIGSUB   3        0   42.34257E+02 0.000E+00 0.000E+00 0.919E+00 0.323E+00 0.632E+02 0.000E+00 0.286E-01 0.000E+00 0.106E+00 0.339E-04 0.260E-03 0.339E-04 0.463E-03 0.853E-05 0.518E-05 0.774E-01 0.148E-02 0.100E-11 .00000E+00 0.000E+00 0.000E+00
BIGSUB   4        0   42.36293E+02 0.000E+00 0.000E+00 0.921E+00 0.297E+00 0.129E+03 0.000E+00 0.113E-01 0.000E+00 0.285E+00 0.174E-05 0.187E-04 0.280E-05 0.788E-04 0.154E-05 0.135E-06 0.274E+00 0.341E-02 0.100E-11 .00000E+00 0.000E+00 0.000E+00
BIGSUB   5        0   42.58984E+02 0.000E+00 0.000E+00 0.916E+00 0.285E+00 0.594E+02 0.000E+00 0.315E-01 0.000E+00 0.119E+00 0.489E-04 0.246E-04 0.366E-05 0.427E-03 0.934E-05 0.438E-05 0.880E-01 0.183E-02 0.100E-11 .00000E+00 0.000E+00 0.000E+00
BIGSUB   1        0   43.76460E+02 0.000E+00 0.000E+00 0.912E+00 0.260E+00 0.772E+02 0.000E+00 0.420E-02 0.000E+00 0.561E-01 0.662E-05 0.564E-04 0.699E-05 0.423E-04 0.133E-05 0.617E-06 0.519E-01 0.859E-03 0.100E-11 .00000E+00 0.000E+00 0.000E+00
BIGSUB   2        0   43.85095E+02 0.000E+00 0.000E+00 0.911E+00 0.293E+00 0.977E+02 0.000E+00 0.155E-02 0.000E+00 0.854E-01 0.235E-05 0.179E-04 0.222E-05 0.295E-04 0.465E-06 0.204E-06 0.839E-01 0.180E-02 0.100E-11 .00000E+00 0.000E+00 0.000E+00
BIGSUB   3        0   43.34257E+02 0.000E+00 0.000E+00 0.900E+00 0.304E+00 0.629E+02 0.000E+00 0.231E-01 0.000E+00 0.886E-01 0.270E-04 0.207E-03 0.271E-04 0.371E-03 0.683E-05 0.413E-05 0.655E-01 0.124E-02 0.100E-11 .00000E+00 0.000E+00 0.000E+00
BIGSUB   4        0   43.36293E+02 0.000E+00 0.000E+00 0.902E+00 0.279E+00 0.129E+03 0.000E+00 0.956E-02 0.000E+00 0.245E+00 0.147E-05 0.158E-04 0.236E-05 0.665E-04 0.130E-05 0.114E-06 0.236E+00 0.293E-02 0.100E-11 .00000E+00 0.000E+00 0.000E+00
BIGSUB   5        0   43.58984E+02 0.000E+00 0.000E+00 0.897E+00 0.272E+00 0.591E+02 0.000E+00 0.164E-01 0.000E+00 0.895E-01 0.254E-04 0.128E-04 0.190E-05 0.222E-03 0.486E-05 0.228E-05 0.731E-01 0.149E-02 0.100E-11 .00000E+00 0.000E+00 0.000E+00
BIGSUB   1        0   44.76460E+02 0.000E+00 0.000E+00 0.905E+00 0.257E+00 0.769E+02 0.000E+00 0.205E-02 0.000E+00 0.495E-01 0.324E-05 0.277E-04 0.344E-05 0.206E-04 0.648E-06 0.302E-06 0.474E-01 0.749E-03 0.100E-11 .00000E+00 0.000E+00 0.000E+00
BIGSUB   2        0   44.85095E+02 0.000E+00 0.000E+00 0.904E+00 0.286E+00 0.975E+02 0.000E+00 0.535E-03 0.000E+00 0.757E-01 0.815E-06 0.630E-05 0.781E-06 0.101E-04 0.160E-06 0.708E-07 0.751E-01 0.157E-02 0.100E-11 .00000E+00 0.000E+00 0.000E+00
BIGSUB   3        0   44.34257E+02 0.000E+00 0.000E+00 0.894E+00 0.294E+00 0.626E+02 0.000E+00 0.187E-01 0.000E+00 0.744E-01 0.216E-04 0.165E-03 0.216E-04 0.298E-03 0.549E-05 0.330E-05 0.558E-01 0.103E-02 0.100E-11 .00000E+00 0.000E+00 0.000E+00
BIGSUB   4        0   44.36293E+02 0.000E+00 0.000E+00 0.896E+00 0.268E+00 0.129E+03 0.000E+00 0.810E-02 0.000E+00 0.211E+00 0.124E-05 0.134E-04 0.200E-05 0.563E-04 0.110E-05 0.972E-07 0.203E+00 0.252E-02 0.100E-11 .00000E+00 0.000E+00 0.000E+00
BIGSUB   5        0   44.58984E+02 0.000E+00 0.000E+00 0.890E+00 0.264E+00 0.588E+02 0.000E+00 0.852E-02 0.000E+00 0.695E-01 0.132E-04 0.667E-05 0.991E-06 0.115E-03 0.253E-05 0.119E-05 0.610E-01 0.122E-02 0.100E-11 .00000E+00 0.000E+00 0.000E+00
BIGSUB   1        0   45.76460E+02 0.000E+00 0.000E+00 0.130E+01 0.371E+00 0.766E+02 0.000E+00 0.100E-02 0.000E+00 0.446E-01 0.159E-05 0.136E-04 0.169E-05 0.101E-04 0.317E-06 0.148E-06 0.436E-01 0.659E-03 0.100E-11 .00000E+00 0.000E+00 0.000E+00
BIGSUB   2        0   45.85095E+02 0.000E+00 0.000E+00 0.130E+01 0.412E+00 0.970E+02 0.000E+00 0.185E-03 0.000E+00 0.680E-01 0.283E-06 0.221E-05 0.275E-06 0.349E-05 0.556E-07 0.249E-07 0.678E-01 0.137E-02 0.100E-11 .00000E+00 0.000E+00 0.000E+00
BIGSUB   3        0   45.34257E+02 0.000E+00 0.000E+00 0.129E+01 0.421E+00 0.622E+02 0.000E+00 0.151E-01 0.000E+00 0.628E-01 0.172E-04 0.131E-03 0.172E-04 0.240E-03 0.441E-05 0.263E-05 0.477E-01 0.868E-03 0.100E-11 .00000E+00 0.000E+00 0.000E+00
BIGSUB   4        0   45.36293E+02 0.000E+00 0.000E+00 0.129E+01 0.385E+00 0.128E+03 0.000E+00 0.686E-02 0.000E+00 0.182E+00 0.105E-05 0.113E-04 0.169E-05 0.477E-04 0.935E-06 0.826E-07 0.175E+00 0.217E-02 0.100E-11 .00000E+00 0.000E+00 0.000E+00
BIGSUB   5        0   45.58984E+02 0.000E+00 0.000E+00 0.128E+01 0.386E+00 0.585E+02 0.000E+00 0.443E-02 0.000E+00 0.554E-01 0.689E-05 0.347E-05 0.516E-06 0.601E-04 0.132E-05 0.618E-06 0.510E-01 0.100E-02 0.100E-11 .00000E+00 0.000E+00 0.000E+00
BIGSUB   1        0   46.76460E+02 0.000E+00 0.000E+00 0.136E+01 0.384E+00 0.762E+02 0.000E+00 0.490E-03 0.000E+00 0.408E-01 0.778E-06 0.671E-05 0.831E-06 0.493E-05 0.155E-06 0.728E-07 0.403E-01 0.583E-03 0.100E-11 .00000E+00 0.000E+00 0.000E+00
BIGSUB   2        0   46.85095E+02 0.000E+00 0.000E+00 0.136E+01 0.425E+00 0.966E+02 0.000E+00 0.646E-04 0.000E+00 0.616E-01 0.988E-07 0.779E-06 0.968E-07 0.121E-05 0.195E-07 0.922E-08 0.616E-01 0.121E-02 0.100E-11 .00000E+00 0.000E+00 0.000E+00
BIGSUB   3        0   46.34257E+02 0.000E+00 0.000E+00 0.135E+01 0.430E+00 0.617E+02 0.000E+00 0.122E-01 0.000E+00 0.532E-01 0.138E-04 0.105E-03 0.137E-04 0.193E-03 0.355E-05 0.210E-05 0.410E-01 0.732E-03 0.100E-11 .00000E+00 0.000E+00 0.000E+00
BIGSUB   4        0   46.36293E+02 0.000E+00 0.000E+00 0.135E+01 0.392E+00 0.128E+03 0.000E+00 0.581E-02 0.000E+00 0.158E+00 0.891E-06 0.958E-05 0.144E-05 0.404E-04 0.792E-06 0.702E-07 0.152E+00 0.187E-02 0.100E-11 .00000E+00 0.000E+00 0.000E+00
BIGSUB   5        0   46.58984E+02 0.000E+00 0.000E+00 0.134E+01 0.399E+00 0.581E+02 0.000E+00 0.231E-02 0.000E+00 0.452E-01 0.359E-05 0.181E-05 0.269E-06 0.313E-04 0.686E-06 0.322E-06 0.429E-01 0.824E-03 0.100E-11 .00000E+00 0.000E+00 0.000E+00
BIGSUB   1        0   47.76460E+02 0.000E+00 0.000E+00 0.594E+00 0.165E+00 0.760E+02 0.000E+00 0.240E-03 0.000E+00 0.377E-01 0.382E-06 0.330E-05 0.409E-06 0.242E-05 0.762E-07 0.360E-07 0.374E-01 0.520E-03 0.100E-11 .00000E+00 0.000E+00 0.000E+00
BIGSUB   2        0   47.85095E+02 0.000E+00 0.000E+00 0.593E+00 0.183E+00 0.964E+02 0.000E+00 0.227E-04 0.000E+00 0.563E-01 0.345E-07 0.274E-06 0.343E-07 0.422E-06 0.703E-08 0.381E-08 0.563E-01 0.107E-02 0.100E-11 .00000E+00 0.000E+00 0.000E+00
BIGSUB   3        0   47.34257E+02 0.000E+00 0.000E+00 0.586E+00 0.180E+00 0.616E+02 0.000E+00 0.990E-02 0.000E+00 0.453E-01 0.110E-04 0.835E-04 0.109E-04 0.155E-03 0.286E-05 0.168E-05 0.354E-01 0.620E-03 0.100E-11 .00000E+00 0.000E+00 0.000E+00
BIGSUB   4        0   47.36293E+02 0.000E+00 0.000E+00 0.587E+00 0.166E+00 0.128E+03 0.000E+00 0.492E-02 0.000E+00 0.137E+00 0.754E-06 0.811E-05 0.122E-05 0.342E-04 0.671E-06 0.597E-07 0.132E+00 0.162E-02 0.100E-11 .00000E+00 0.000E+00 0.000E+00
BIGSUB   5        0   47.58984E+02 0.000E+00 0.000E+00 0.583E+00 0.168E+00 0.579E+02 0.000E+00 0.120E-02 0.000E+00 0.374E-01 0.187E-05 0.942E-06 0.140E-06 0.163E-04 0.358E-06 0.168E-06 0.362E-01 0.680E-03 0.100E-11 .00000E+00 0.000E+00 0.000E+00
BIGSUB   1        0   48.76460E+02 0.000E+00 0.000E+00 0.116E+01 0.319E+00 0.757E+02 0.000E+00 0.118E-03 0.000E+00 0.350E-01 0.187E-06 0.162E-05 0.201E-06 0.119E-05 0.374E-07 0.180E-07 0.349E-01 0.467E-03 0.100E-11 .00000E+00 0.000E+00 0.000E+00
BIGSUB   2        0   48.85095E+02 0.000E+00 0.000E+00 0.116E+01 0.355E+00 0.961E+02 0.000E+00 0.816E-05 0.000E+00 0.517E-01 0.121E-07 0.967E-07 0.124E-07 0.148E-06 0.276E-08 0.191E-08 0.517E-01 0.955E-03 0.100E-11 .00000E+00 0.000E+00 0.000E+00
BIGSUB   3        0   48.34257E+02 0.000E+00 0.000E+00 0.114E+01 0.347E+00 0.612E+02 0.000E+00 0.801E-02 0.000E+00 0.388E-01 0.880E-05 0.666E-04 0.873E-05 0.125E-03 0.230E-05 0.134E-05 0.308E-01 0.527E-03 0.100E-11 .00000E+00 0.000E+00 0.000E+00
BIGSUB   4        0   48.36293E+02 0.000E+00 0.000E+00 0.115E+01 0.320E+00 0.127E+03 0.000E+00 0.416E-02 0.000E+00 0.119E+00 0.639E-06 0.687E-05 0.103E-05 0.290E-04 0.568E-06 0.508E-07 0.114E+00 0.140E-02 0.100E-11 .00000E+00 0.000E+00 0.000E+00
BIGSUB   5        0   48.58984E+02 0.000E+00 0.000E+00 0.114E+01 0.324E+00 0.576E+02 0.000E+00 0.627E-03 0.000E+00 0.313E-01 0.974E-06 0.491E-06 0.732E-07 0.849E-05 0.186E-06 0.879E-07 0.307E-01 0.562E-03 0.100E-11 .00000E+00 0.000E+00 0.000E+00
BIGSUB   1        0   49.76460E+02 0.000E+00 0.000E+00 0.139E+01 0.380E+00 0.753E+02 0.000E+00 0.580E-04 0.000E+00 0.327E-01 0.921E-07 0.799E-06 0.992E-07 0.582E-06 0.185E-07 0.922E-08 0.327E-01 0.423E-03 0.100E-11 .00000E+00 0.000E+00 0.000E+00
BIGSUB   2        0   49.85095E+02 0.000E+00 0.000E+00 0.139E+01 0.420E+00 0.957E+02 0.000E+00 0.315E-05 0.000E+00 0.478E-01 0.424E-08 0.343E-07 0.464E-08 0.518E-07 0.125E-08 0.149E-08 0.478E-01 0.859E-03 0.100E-11 .00000E+00 0.000E+00 0.000E+00
BIGSUB   3        0   49.34257E+02 0.000E+00 0.000E+00 0.138E+01 0.402E+00 0.608E+02 0.000E+00 0.649E-02 0.000E+00 0.334E-01 0.704E-05 0.531E-04 0.697E-05 0.101E-03 0.185E-05 0.107E-05 0.269E-01 0.450E-03 0.100E-11 .00000E+00 0.000E+00 0.000E+00
BIGSUB   4        0   49.36293E+02 0.000E+00 0.000E+00 0.138E+01 0.369E+00 0.127E+03 0.000E+00 0.353E-02 0.000E+00 0.103E+00 0.541E-06 0.582E-05 0.872E-06 0.245E-04 0.481E-06 0.433E-07 0.997E-01 0.122E-02 0.100E-11 .00000E+00 0.000E+00 0.000E+00
BIGSUB   5        0   49.58984E+02 0.000E+00 0.000E+00 0.137E+01 0.374E+00 0.572E+02 0.000E+00 0.327E-03 0.000E+00 0.265E-01 0.507E-06 0.256E-06 0.383E-07 0.442E-05 0.973E-07 0.461E-07 0.262E-01 0.466E-03 0.100E-11 .00000E+00 0.000E+00 0.000E+00
BIGSUB   1        0   50.76460E+02 0.000E+00 0.000E+00 0.107E+01 0.289E+00 0.750E+02 0.000E+00 0.286E-04 0.000E+00 0.307E-01 0.453E-07 0.393E-06 0.490E-07 0.286E-06 0.929E-08 0.487E-08 0.307E-01 0.385E-03 0.100E-11 .00000E+00 0.000E+00 0.000E+00
BIGSUB   2        0   50.85095E+02 0.000E+00 0.000E+00 0.107E+01 0.327E+00 0.953E+02 0.000E+00 0.139E-05 0.000E+00 0.443E-01 0.149E-08 0.124E-07 0.191E-08 0.184E-07 0.747E-09 0.149E-08 0.443E-01 0.778E-03 0.100E-11 .00000E+00 0.000E+00 0.000E+00
BIGSUB   3        0   50.34257E+02 0.000E+00 0.000E+00 0.106E+01 0.308E+00 0.605E+02 0.000E+00 0.526E-02 0.000E+00 0.289E-01 0.563E-05 0.423E-04 0.556E-05 0.811E-04 0.149E-05 0.859E-06 0.236E-01 0.387E-03 0.100E-11 .00000E+00 0.000E+00 0.000E+00
BIGSUB   4        0   50.36293E+02 0.000E+00 0.000E+00 0.106E+01 0.291E+00 0.127E+03 0.000E+00 0.299E-02 0.000E+00 0.901E-01 0.458E-06 0.493E-05 0.739E-06 0.208E-04 0.408E-06 0.370E-07 0.871E-01 0.106E-02 0.100E-11 .00000E+00 0.000E+00 0.000E+00
BIGSUB   5        0   50.58984E+02 0.000E+00 0.000E+00 0.106E+01 0.294E+00 0.569E+02 0.000E+00 0.170E-03 0.000E+00 0.226E-01 0.264E-06 0.133E-06 0.201E-07 0.230E-05 0.508E-07 0.243E-07 0.224E-01 0.388E-03 0.100E-11 .00000E+00 0.000E+00 0.000E+00
BIGSUB   1        0   51.76460E+02 0.000E+00 0.000E+00 0.198E+01 0.537E+00 0.745E+02 0.000E+00 0.142E-04 0.000E+00 0.289E-01 0.222E-07 0.194E-06 0.243E-07 0.140E-06 0.474E-08 0.274E-08 0.289E-01 0.352E-03 0.100E-11 .00000E+00 0.000E+00 0.000E+00
BIGSUB   2        0   51.85095E+02 0.000E+00 0.000E+00 0.198E+01 0.610E+00 0.947E+02 0.000E+00 0.773E-06 0.000E+00 0.413E-01 0.524E-09 0.463E-08 0.958E-09 0.674E-08 0.747E-09 0.149E-08 0.413E-01 0.709E-03 0.100E-11 .00000E+00 0.000E+00 0.000E+00
BIGSUB   3        0   51.34257E+02 0.000E+00 0.000E+00 0.196E+01 0.560E+00 0.599E+02 0.000E+00 0.426E-02 0.000E+00 0.251E-01 0.450E-05 0.338E-04 0.444E-05 0.654E-04 0.120E-05 0.687E-06 0.209E-01 0.334E-03 0.100E-11 .00000E+00 0.000E+00 0.000E+00
BIGSUB   4        0   51.36293E+02 0.000E+00 0.000E+00 0.196E+01 0.528E+00 0.126E+03 0.000E+00 0.253E-02 0.000E+00 0.789E-01 0.388E-06 0.417E-05 0.626E-06 0.176E-04 0.346E-06 0.316E-07 0.763E-01 0.923E-03 0.100E-11 .00000E+00 0.000E+00 0.000E+00
BIGSUB   5        0   51.58984E+02 0.000E+00 0.000E+00 0.196E+01 0.536E+00 0.564E+02 0.000E+00 0.889E-04 0.000E+00 0.194E-01 0.138E-06 0.697E-07 0.106E-07 0.120E-05 0.266E-07 0.130E-07 0.194E-01 0.324E-03 0.100E-11 .00000E+00 0.000E+00 0.000E+00
BIGSUB   1        0   52.76460E+02 0.000E+00 0.000E+00 0.288E+01 0.770E+00 0.737E+02 0.000E+00 0.718E-05 0.000E+00 0.273E-01 0.109E-07 0.954E-07 0.121E-07 0.691E-07 0.250E-08 0.169E-08 0.273E-01 0.324E-03 0.100E-11 .00000E+00 0.000E+00 0.000E+00
BIGSUB   2        0   52.85095E+02 0.000E+00 0.000E+00 0.288E+01 0.900E+00 0.938E+02 0.000E+00 0.743E-06 0.000E+00 0.387E-01 0.184E-09 0.191E-08 0.747E-09 0.266E-08 0.747E-09 0.149E-08 0.387E-01 0.650E-03 0.100E-11 .00000E+00 0.000E+00 0.000E+00
BIGSUB   3        0   52.34257E+02 0.000E+00 0.000E+00 0.286E+01 0.808E+00 0.591E+02 0.000E+00 0.345E-02 0.000E+00 0.220E-01 0.360E-05 0.269E-04 0.354E-05 0.527E-04 0.966E-06 0.549E-06 0.186E-01 0.291E-03 0.100E-11 .00000E+00 0.000E+00 0.000E+00
BIGSUB   4        0   52.36293E+02 0.000E+00 0.000E+00 0.287E+01 0.782E+00 0.125E+03 0.000E+00 0.214E-02 0.000E+00 0.692E-01 0.329E-06 0.353E-05 0.530E-06 0.149E-04 0.293E-06 0.270E-07 0.671E-01 0.808E-03 0.100E-11 .00000E+00 0.000E+00 0.000E+00
BIGSUB   5        0   52.58984E+02 0.000E+00 0.000E+00 0.286E+01 0.793E+00 0.556E+02 0.000E+00 0.465E-04 0.000E+00 0.169E-01 0.717E-07 0.364E-07 0.569E-08 0.626E-06 0.140E-07 0.708E-08 0.168E-01 0.272E-03 0.100E-11 .00000E+00 0.000E+00 0.000E+00
BIGSUB   1        0   53.76460E+02 0.000E+00 0.000E+00 0.200E+01 0.521E+00 0.732E+02 0.000E+00 0.370E-05 0.000E+00 0.259E-01 0.538E-08 0.471E-07 0.613E-08 0.342E-07 0.140E-08 0.129E-08 0.259E-01 0.300E-03 0.100E-11 .00000E+00 0.000E+00 0.000E+00
BIGSUB   2        0   53.85095E+02 0.000E+00 0.000E+00 0.200E+01 0.623E+00 0.932E+02 0.000E+00 0.743E-06 0.000E+00 0.363E-01 0.652E-10 0.957E-09 0.747E-09 0.122E-08 0.747E-09 0.149E-08 0.363E-01 0.599E-03 0.100E-11 .00000E+00 0.000E+00 0.000E+00
BIGSUB   3        0   53.34257E+02 0.000E+00 0.000E+00 0.199E+01 0.548E+00 0.586E+02 0.000E+00 0.280E-02 0.000E+00 0.194E-01 0.288E-05 0.215E-04 0.283E-05 0.424E-04 0.778E-06 0.440E-06 0.166E-01 0.254E-03 0.100E-11 .00000E+00 0.000E+00 0.000E+00
BIGSUB   4        0   53.36293E+02 0.000E+00 0.000E+00 0.199E+01 0.544E+00 0.125E+03 0.000E+00 0.181E-02 0.000E+00 0.610E-01 0.278E-06 0.299E-05 0.449E-06 0.126E-04 0.248E-06 0.231E-07 0.592E-01 0.709E-03 0.100E-11 .00000E+00 0.000E+00 0.000E+00
BIGSUB   5        0   53.58984E+02 0.000E+00 0.000E+00 0.198E+01 0.552E+00 0.550E+02 0.000E+00 0.244E-04 0.000E+00 0.147E-01 0.374E-07 0.191E-07 0.312E-08 0.326E-06 0.747E-08 0.400E-08 0.147E-01 0.230E-03 0.100E-11 .00000E+00 0.000E+00 0.000E+00
BIGSUB   1        0   54.76460E+02 0.000E+00 0.000E+00 0.200E+01 0.490E+00 0.727E+02 0.000E+00 0.199E-05 0.000E+00 0.245E-01 0.265E-08 0.233E-07 0.319E-08 0.170E-07 0.859E-09 0.121E-08 0.245E-01 0.279E-03 0.100E-11 .00000E+00 0.000E+00 0.000E+00
BIGSUB   2        0   54.85095E+02 0.000E+00 0.000E+00 0.199E+01 0.585E+00 0.926E+02 0.000E+00 0.743E-06 0.000E+00 0.342E-01 0.233E-10 0.747E-09 0.747E-09 0.747E-09 0.747E-09 0.149E-08 0.342E-01 0.555E-03 0.100E-11 .00000E+00 0.000E+00 0.000E+00
BIGSUB   3        0   54.34257E+02 0.000E+00 0.000E+00 0.198E+01 0.495E+00 0.581E+02 0.000E+00 0.227E-02 0.000E+00 0.172E-01 0.231E-05 0.171E-04 0.226E-05 0.342E-04 0.627E-06 0.352E-06 0.149E-01 0.223E-03 0.100E-11 .00000E+00 0.000E+00 0.000E+00
BIGSUB   4        0   54.36293E+02 0.000E+00 0.000E+00 0.198E+01 0.482E+00 0.124E+03 0.000E+00 0.154E-02 0.000E+00 0.539E-01 0.236E-06 0.253E-05 0.380E-06 0.107E-04 0.210E-06 0.199E-07 0.524E-01 0.624E-03 0.100E-11 .00000E+00 0.000E+00 0.000E+00
BIGSUB   5        0   54.58984E+02 0.000E+00 0.000E+00 0.197E+01 0.487E+00 0.545E+02 0.000E+00 0.128E-04 0.000E+00 0.129E-01 0.195E-07 0.101E-07 0.178E-08 0.170E-06 0.404E-08 0.239E-08 0.129E-01 0.195E-03 0.100E-11 .00000E+00 0.000E+00 0.000E+00
BIGSUB   1        0   55.76460E+02 0.301E+01 0.000E+00 0.119E+01 0.488E+00 0.743E+02 0.000E+00 0.393E+00 0.000E+00 0.419E+00 0.171E-02 0.174E-02 0.220E-03 0.697E-01 0.172E-03 0.698E-04 0.257E-01 0.365E-03 0.100E-11 .10687E-01 0.281E+00 0.415E-01
BIGSUB   2        0   55.85095E+02 0.251E+01 0.000E+00 0.119E+01 0.527E+00 0.940E+02 0.000E+00 0.279E+00 0.000E+00 0.313E+00 0.397E-02 0.289E-02 0.397E-03 0.423E-01 0.137E-03 0.140E-03 0.337E-01 0.562E-03 0.100E-11 .10943E-01 0.668E+00 0.302E-01
BIGSUB   3        0   55.34257E+02 0.151E+01 0.000E+00 0.117E+01 0.525E+00 0.590E+02 0.000E+00 0.674E-01 0.000E+00 0.809E-01 0.134E-02 0.638E-03 0.874E-04 0.124E-01 0.346E-04 0.476E-04 0.135E-01 0.197E-03 0.100E-11 .31337E-01 0.569E-01 0.788E-02
BIGSUB   4        0   55.36293E+02 0.151E+01 0.000E+00 0.118E+01 0.559E+00 0.125E+03 0.000E+00 0.356E-01 0.000E+00 0.821E-01 0.954E-03 0.918E-03 0.122E-03 0.700E-02 0.262E-04 0.380E-04 0.465E-01 0.551E-03 0.100E-11 .30411E-01 0.145E+00 0.548E-02
BIGSUB   5        0   55.58984E+02 0.151E+01 0.000E+00 0.117E+01 0.564E+00 0.554E+02 0.000E+00 0.185E-01 0.000E+00 0.300E-01 0.101E-07 0.543E-08 0.108E-08 0.669E-02 0.173E-04 0.159E-08 0.114E-01 0.166E-03 0.100E-11 .92218E-03 0.000E+00 0.307E-02
BIGSUB   1        0   56.76460E+02 0.131E+01 0.000E+00 0.830E+00 0.395E+00 0.750E+02 0.000E+00 0.159E+00 0.000E+00 0.192E+00 0.287E-03 0.150E-03 0.193E-04 0.328E-01 0.815E-04 0.139E-04 0.332E-01 0.693E-03 0.100E-11 .20854E-01 0.299E-02 0.203E-01
BIGSUB   2        0   56.85095E+02 0.894E+01 0.000E+00 0.829E+00 0.442E+00 0.963E+02 0.000E+00 0.436E+01 0.000E+00 0.442E+01 0.613E-01 0.271E-01 0.378E-02 0.106E+00 0.136E-02 0.180E-02 0.593E-01 0.716E-03 0.100E-11 .15292E-01 0.450E+01 0.449E+00
BIGSUB   3        0   56.34257E+02 0.633E+01 0.000E+00 0.822E+00 0.490E+00 0.611E+02 0.000E+00 0.286E+01 0.000E+00 0.291E+01 0.381E-01 0.265E-01 0.352E-02 0.109E+00 0.891E-03 0.147E-02 0.427E-01 0.542E-03 0.100E-11 .52829E-01 0.333E+01 0.293E+00
BIGSUB   4        0   56.36293E+02 0.633E+01 0.000E+00 0.823E+00 0.551E+00 0.128E+03 0.000E+00 0.232E+01 0.000E+00 0.242E+01 0.188E-01 0.253E-01 0.337E-02 0.744E-01 0.743E-03 0.123E-02 0.102E+00 0.125E-02 0.100E-11 .50176E-01 0.322E+01 0.241E+00
BIGSUB   5        0   56.58984E+02 0.633E+01 0.000E+00 0.820E+00 0.501E+00 0.575E+02 0.000E+00 0.199E+01 0.000E+00 0.204E+01 0.166E-02 0.136E-02 0.186E-03 0.693E-01 0.613E-03 0.154E-03 0.494E-01 0.607E-03 0.100E-11 .99394E-02 0.360E-01 0.216E+00
BIGSUB   1        0   57.76460E+02 0.000E+00 0.000E+00 0.114E+00 0.356E-01 0.750E+02 0.000E+00 0.108E+00 0.000E+00 0.139E+00 0.419E-04 0.254E-04 0.353E-05 0.140E-01 0.358E-04 0.340E-05 0.304E-01 0.608E-03 0.100E-11 .00000E+00 0.000E+00 0.000E+00
BIGSUB   2        0   57.85095E+02 0.000E+00 0.000E+00 0.114E+00 0.405E-01 0.962E+02 0.000E+00 0.109E+01 0.000E+00 0.114E+01 0.263E-02 0.386E-02 0.494E-03 0.271E-01 0.335E-03 0.108E-03 0.532E-01 0.650E-03 0.100E-11 .00000E+00 0.000E+00 0.000E+00
BIGSUB   3        0   57.34257E+02 0.000E+00 0.000E+00 0.111E+00 0.441E-01 0.610E+02 0.000E+00 0.453E+00 0.000E+00 0.490E+00 0.271E-02 0.275E-02 0.359E-03 0.176E-01 0.141E-03 0.130E-03 0.363E-01 0.460E-03 0.100E-11 .00000E+00 0.000E+00 0.000E+00
BIGSUB   4        0   57.36293E+02 0.000E+00 0.000E+00 0.111E+00 0.461E-01 0.128E+03 0.000E+00 0.264E+00 0.000E+00 0.353E+00 0.712E-03 0.188E-02 0.240E-03 0.756E-02 0.800E-04 0.549E-04 0.892E-01 0.109E-02 0.100E-11 .00000E+00 0.000E+00 0.000E+00
BIGSUB   5        0   57.58984E+02 0.000E+00 0.000E+00 0.110E+00 0.422E-01 0.574E+02 0.000E+00 0.753E+00 0.000E+00 0.794E+00 0.794E-03 0.441E-03 0.633E-04 0.280E-01 0.226E-03 0.733E-04 0.411E-01 0.501E-03 0.100E-11 .00000E+00 0.000E+00 0.000E+00
BIGSUB   1        0   58.76460E+02 0.000E+00 0.000E+00 0.616E+00 0.189E+00 0.748E+02 0.000E+00 0.489E-01 0.000E+00 0.769E-01 0.134E-04 0.859E-05 0.121E-05 0.629E-02 0.163E-04 0.121E-05 0.281E-01 0.537E-03 0.100E-11 .00000E+00 0.000E+00 0.000E+00
BIGSUB   2        0   58.85095E+02 0.000E+00 0.000E+00 0.615E+00 0.210E+00 0.960E+02 0.000E+00 0.327E+00 0.000E+00 0.375E+00 0.261E-03 0.118E-02 0.147E-03 0.832E-02 0.102E-03 0.188E-04 0.481E-01 0.594E-03 0.100E-11 .00000E+00 0.000E+00 0.000E+00
BIGSUB   3        0   58.34257E+02 0.000E+00 0.000E+00 0.608E+00 0.227E+00 0.608E+02 0.000E+00 0.949E-01 0.000E+00 0.126E+00 0.299E-03 0.365E-03 0.479E-04 0.383E-02 0.301E-04 0.186E-04 0.311E-01 0.391E-03 0.100E-11 .00000E+00 0.000E+00 0.000E+00
BIGSUB   4        0   58.36293E+02 0.000E+00 0.000E+00 0.609E+00 0.231E+00 0.128E+03 0.000E+00 0.416E-01 0.000E+00 0.119E+00 0.514E-04 0.266E-03 0.332E-04 0.113E-02 0.121E-04 0.478E-05 0.778E-01 0.945E-03 0.100E-11 .00000E+00 0.000E+00 0.000E+00
BIGSUB   5        0   58.58984E+02 0.000E+00 0.000E+00 0.605E+00 0.211E+00 0.572E+02 0.000E+00 0.328E+00 0.000E+00 0.363E+00 0.401E-03 0.195E-03 0.286E-04 0.131E-01 0.101E-03 0.370E-04 0.344E-01 0.414E-03 0.100E-11 .00000E+00 0.000E+00 0.000E+00
BIGSUB   1        0   59.76460E+02 0.000E+00 0.000E+00 0.936E+00 0.283E+00 0.745E+02 0.000E+00 0.225E-01 0.000E+00 0.485E-01 0.497E-05 0.341E-05 0.478E-06 0.289E-02 0.751E-05 0.455E-06 0.260E-01 0.478E-03 0.100E-11 .00000E+00 0.000E+00 0.000E+00
BIGSUB   2        0   59.85095E+02 0.000E+00 0.000E+00 0.935E+00 0.313E+00 0.957E+02 0.000E+00 0.105E+00 0.000E+00 0.149E+00 0.647E-04 0.406E-03 0.504E-04 0.269E-02 0.329E-04 0.559E-05 0.438E-01 0.545E-03 0.100E-11 .00000E+00 0.000E+00 0.000E+00
BIGSUB   3        0   59.34257E+02 0.000E+00 0.000E+00 0.925E+00 0.333E+00 0.605E+02 0.000E+00 0.274E-01 0.000E+00 0.541E-01 0.504E-04 0.925E-04 0.121E-04 0.113E-02 0.887E-05 0.407E-05 0.267E-01 0.335E-03 0.100E-11 .00000E+00 0.000E+00 0.000E+00
BIGSUB   4        0   59.36293E+02 0.000E+00 0.000E+00 0.926E+00 0.333E+00 0.127E+03 0.000E+00 0.931E-02 0.000E+00 0.774E-01 0.737E-05 0.521E-04 0.647E-05 0.224E-03 0.243E-05 0.720E-06 0.680E-01 0.823E-03 0.100E-11 .00000E+00 0.000E+00 0.000E+00
BIGSUB   5        0   59.58984E+02 0.000E+00 0.000E+00 0.921E+00 0.314E+00 0.569E+02 0.000E+00 0.158E+00 0.000E+00 0.187E+00 0.206E-03 0.968E-04 0.143E-04 0.654E-02 0.493E-04 0.190E-04 0.288E-01 0.344E-03 0.100E-11 .00000E+00 0.000E+00 0.000E+00
BIGSUB   1        0   60.76460E+02 0.000E+00 0.000E+00 0.145E+01 0.450E+00 0.741E+02 0.000E+00 0.105E-01 0.000E+00 0.347E-01 0.187E-05 0.140E-05 0.194E-06 0.134E-02 0.351E-05 0.172E-06 0.242E-01 0.429E-03 0.100E-11 .00000E+00 0.000E+00 0.000E+00
BIGSUB   2        0   60.85095E+02 0.000E+00 0.000E+00 0.145E+01 0.498E+00 0.952E+02 0.000E+00 0.346E-01 0.000E+00 0.747E-01 0.208E-04 0.142E-03 0.176E-04 0.888E-03 0.109E-04 0.183E-05 0.401E-01 0.504E-03 0.100E-11 .00000E+00 0.000E+00 0.000E+00
BIGSUB   3        0   60.34257E+02 0.000E+00 0.000E+00 0.143E+01 0.516E+00 0.599E+02 0.000E+00 0.117E-01 0.000E+00 0.348E-01 0.134E-04 0.495E-04 0.638E-05 0.487E-03 0.388E-05 0.140E-05 0.231E-01 0.289E-03 0.100E-11 .00000E+00 0.000E+00 0.000E+00
BIGSUB   4        0   60.36293E+02 0.000E+00 0.000E+00 0.144E+01 0.511E+00 0.127E+03 0.000E+00 0.366E-02 0.000E+00 0.634E-01 0.160E-05 0.148E-04 0.185E-05 0.706E-04 0.772E-06 0.144E-06 0.597E-01 0.719E-03 0.100E-11 .00000E+00 0.000E+00 0.000E+00
BIGSUB   5        0   60.58984E+02 0.000E+00 0.000E+00 0.143E+01 0.507E+00 0.564E+02 0.000E+00 0.794E-01 0.000E+00 0.104E+00 0.107E-03 0.497E-04 0.735E-05 0.334E-02 0.249E-04 0.986E-05 0.243E-01 0.287E-03 0.100E-11 .00000E+00 0.000E+00 0.000E+00
BIGSUB   1        0   61.76460E+02 0.000E+00 0.000E+00 0.107E+01 0.327E+00 0.738E+02 0.000E+00 0.495E-02 0.000E+00 0.275E-01 0.710E-06 0.586E-06 0.806E-07 0.631E-03 0.166E-05 0.653E-07 0.226E-01 0.387E-03 0.100E-11 .00000E+00 0.000E+00 0.000E+00
BIGSUB   2        0   61.85095E+02 0.000E+00 0.000E+00 0.107E+01 0.360E+00 0.949E+02 0.000E+00 0.116E-01 0.000E+00 0.485E-01 0.696E-05 0.499E-04 0.618E-05 0.298E-03 0.365E-05 0.618E-06 0.369E-01 0.467E-03 0.100E-11 .00000E+00 0.000E+00 0.000E+00
BIGSUB   3        0   61.34257E+02 0.000E+00 0.000E+00 0.106E+01 0.363E+00 0.596E+02 0.000E+00 0.709E-02 0.000E+00 0.272E-01 0.587E-05 0.362E-04 0.463E-05 0.295E-03 0.237E-05 0.742E-06 0.201E-01 0.250E-03 0.100E-11 .00000E+00 0.000E+00 0.000E+00
BIGSUB   4        0   61.36293E+02 0.000E+00 0.000E+00 0.106E+01 0.353E+00 0.126E+03 0.000E+00 0.236E-02 0.000E+00 0.549E-01 0.570E-06 0.723E-05 0.914E-06 0.388E-04 0.430E-06 0.419E-07 0.526E-01 0.630E-03 0.100E-11 .00000E+00 0.000E+00 0.000E+00
BIGSUB   5        0   61.58984E+02 0.000E+00 0.000E+00 0.105E+01 0.364E+00 0.561E+02 0.000E+00 0.407E-01 0.000E+00 0.612E-01 0.555E-04 0.258E-04 0.381E-05 0.172E-02 0.128E-04 0.512E-05 0.206E-01 0.240E-03 0.100E-11 .00000E+00 0.000E+00 0.000E+00
BIGSUB   1        0   62.76460E+02 0.000E+00 0.000E+00 0.155E+01 0.460E+00 0.733E+02 0.000E+00 0.235E-02 0.000E+00 0.235E-01 0.270E-06 0.250E-06 0.340E-07 0.299E-03 0.791E-06 0.250E-07 0.212E-01 0.352E-03 0.100E-11 .00000E+00 0.000E+00 0.000E+00
BIGSUB   2        0   62.85095E+02 0.000E+00 0.000E+00 0.155E+01 0.505E+00 0.944E+02 0.000E+00 0.395E-02 0.000E+00 0.380E-01 0.237E-05 0.175E-04 0.217E-05 0.101E-03 0.124E-05 0.211E-06 0.341E-01 0.436E-03 0.100E-11 .00000E+00 0.000E+00 0.000E+00
BIGSUB   3        0   62.34257E+02 0.000E+00 0.000E+00 0.153E+01 0.499E+00 0.591E+02 0.000E+00 0.517E-02 0.000E+00 0.228E-01 0.369E-05 0.284E-04 0.362E-05 0.215E-03 0.173E-05 0.508E-06 0.176E-01 0.218E-03 0.100E-11 .00000E+00 0.000E+00 0.000E+00
BIGSUB   4        0   62.36293E+02 0.000E+00 0.000E+00 0.154E+01 0.475E+00 0.126E+03 0.000E+00 0.187E-02 0.000E+00 0.483E-01 0.340E-06 0.515E-05 0.654E-06 0.291E-04 0.324E-06 0.212E-07 0.464E-01 0.553E-03 0.100E-11 .00000E+00 0.000E+00 0.000E+00
BIGSUB   5        0   62.58984E+02 0.000E+00 0.000E+00 0.153E+01 0.493E+00 0.556E+02 0.000E+00 0.210E-01 0.000E+00 0.385E-01 0.289E-04 0.134E-04 0.198E-05 0.895E-03 0.663E-05 0.267E-05 0.175E-01 0.202E-03 0.100E-11 .00000E+00 0.000E+00 0.000E+00
BIGSUB   1        0   63.76460E+02 0.000E+00 0.000E+00 0.180E+01 0.515E+00 0.728E+02 0.000E+00 0.113E-02 0.000E+00 0.211E-01 0.103E-06 0.109E-06 0.147E-07 0.143E-03 0.380E-06 0.974E-08 0.199E-01 0.322E-03 0.100E-11 .00000E+00 0.000E+00 0.000E+00
BIGSUB   2        0   63.85095E+02 0.000E+00 0.000E+00 0.180E+01 0.568E+00 0.938E+02 0.000E+00 0.135E-02 0.000E+00 0.330E-01 0.815E-06 0.616E-05 0.763E-06 0.348E-04 0.427E-06 0.727E-07 0.317E-01 0.407E-03 0.100E-11 .00000E+00 0.000E+00 0.000E+00
BIGSUB   3        0   63.34257E+02 0.000E+00 0.000E+00 0.178E+01 0.535E+00 0.586E+02 0.000E+00 0.405E-02 0.000E+00 0.196E-01 0.273E-05 0.226E-04 0.289E-05 0.167E-03 0.135E-05 0.387E-06 0.155E-01 0.191E-03 0.100E-11 .00000E+00 0.000E+00 0.000E+00
BIGSUB   4        0   63.36293E+02 0.000E+00 0.000E+00 0.178E+01 0.510E+00 0.125E+03 0.000E+00 0.156E-02 0.000E+00 0.427E-01 0.262E-06 0.418E-05 0.532E-06 0.240E-04 0.267E-06 0.155E-07 0.411E-01 0.488E-03 0.100E-11 .00000E+00 0.000E+00 0.000E+00
BIGSUB   5        0   63.58984E+02 0.000E+00 0.000E+00 0.178E+01 0.526E+00 0.550E+02 0.000E+00 0.109E-01 0.000E+00 0.259E-01 0.150E-04 0.698E-05 0.103E-05 0.465E-03 0.345E-05 0.139E-05 0.150E-01 0.170E-03 0.100E-11 .00000E+00 0.000E+00 0.000E+00
BIGSUB   1        0   64.76460E+02 0.000E+00 0.000E+00 0.137E+01 0.388E+00 0.724E+02 0.000E+00 0.544E-03 0.000E+00 0.193E-01 0.394E-07 0.482E-07 0.649E-08 0.689E-04 0.183E-06 0.406E-08 0.188E-01 0.296E-03 0.100E-11 .00000E+00 0.000E+00 0.000E+00
BIGSUB   2        0   64.85095E+02 0.000E+00 0.000E+00 0.137E+01 0.443E+00 0.934E+02 0.000E+00 0.468E-03 0.000E+00 0.300E-01 0.282E-06 0.216E-05 0.268E-06 0.120E-04 0.147E-06 0.254E-07 0.296E-01 0.383E-03 0.100E-11 .00000E+00 0.000E+00 0.000E+00
BIGSUB   3        0   64.34257E+02 0.000E+00 0.000E+00 0.136E+01 0.404E+00 0.582E+02 0.000E+00 0.324E-02 0.000E+00 0.170E-01 0.213E-05 0.181E-04 0.231E-05 0.134E-03 0.108E-05 0.305E-06 0.137E-01 0.168E-03 0.100E-11 .00000E+00 0.000E+00 0.000E+00
BIGSUB   4        0   64.36293E+02 0.000E+00 0.000E+00 0.136E+01 0.397E+00 0.125E+03 0.000E+00 0.132E-02 0.000E+00 0.379E-01 0.217E-06 0.351E-05 0.446E-06 0.202E-04 0.225E-06 0.132E-07 0.366E-01 0.431E-03 0.100E-11 .00000E+00 0.000E+00 0.000E+00
BIGSUB   5        0   64.58984E+02 0.000E+00 0.000E+00 0.135E+01 0.411E+00 0.546E+02 0.000E+00 0.566E-02 0.000E+00 0.186E-01 0.783E-05 0.364E-05 0.538E-06 0.242E-03 0.179E-05 0.723E-06 0.129E-01 0.144E-03 0.100E-11 .00000E+00 0.000E+00 0.000E+00
BIGSUB   1        0   65.76460E+02 0.000E+00 0.000E+00 0.153E+01 0.413E+00 0.720E+02 0.000E+00 0.263E-03 0.000E+00 0.180E-01 0.152E-07 0.218E-07 0.296E-08 0.333E-04 0.889E-07 0.201E-08 0.178E-01 0.273E-03 0.100E-11 .00000E+00 0.000E+00 0.000E+00
BIGSUB   2        0   65.85095E+02 0.000E+00 0.000E+00 0.153E+01 0.478E+00 0.929E+02 0.000E+00 0.162E-03 0.000E+00 0.279E-01 0.979E-07 0.761E-06 0.944E-07 0.417E-05 0.513E-07 0.928E-08 0.277E-01 0.360E-03 0.100E-11 .00000E+00 0.000E+00 0.000E+00
BIGSUB   3        0   65.34257E+02 0.000E+00 0.000E+00 0.151E+01 0.422E+00 0.577E+02 0.000E+00 0.261E-02 0.000E+00 0.149E-01 0.170E-05 0.145E-04 0.185E-05 0.108E-03 0.863E-06 0.243E-06 0.123E-01 0.149E-03 0.100E-11 .00000E+00 0.000E+00 0.000E+00
BIGSUB   4        0   65.36293E+02 0.000E+00 0.000E+00 0.151E+01 0.412E+00 0.125E+03 0.000E+00 0.111E-02 0.000E+00 0.338E-01 0.183E-06 0.297E-05 0.377E-06 0.171E-04 0.191E-06 0.114E-07 0.326E-01 0.383E-03 0.100E-11 .00000E+00 0.000E+00 0.000E+00
BIGSUB   5        0   65.58984E+02 0.000E+00 0.000E+00 0.151E+01 0.423E+00 0.542E+02 0.000E+00 0.295E-02 0.000E+00 0.142E-01 0.408E-05 0.189E-05 0.281E-06 0.126E-03 0.933E-06 0.377E-06 0.112E-01 0.123E-03 0.100E-11 .00000E+00 0.000E+00 0.000E+00
