1
    SWAT Jun 01 2011    VER 2009/Rev. 481                                                                0/ 0/   0      0: 0: 0

    General Input/Output section (file.cio):                                        
    2013-7-14 00:00:00 ARCGIS-SWAT interface AV                                     
                                                                                    


       RCH      GIS   MON     AREAkm2  FLOW_INcms FLOW_OUTcms     EVAPcms    TLOSScms  SED_INtons SED_OUTtonsSEDCONCmg/kg   ORGN_INkg  ORGN_OUTkg   ORGP_INkg  ORGP_OUTkg    NO3_INkg   NO3_OUTkg    NH4_INkg   NH4_OUTkg    NO2_INkg   NO2_OUTkg   MINP_INkg  MINP_OUTkg   CHLA_INkg  CHLA_OUTkg   CBOD_INkg  CBOD_OUTkg  DISOX_INkg DISOX_OUTkg SOLPST_INmgSOLPST_OUTmg SORPST_INmgSORPST_OUTmg  REACTPSTmg    VOLPSTmg  SETTLPSTmgRESUSP_PSTmgDIFFUSEPSTmgREACBEDPSTmg   BURYPSTmg   BED_PSTmg BACTP_OUTctBACTLP_OUTct  CMETAL#1kg  CMETAL#2kg  CMETAL#3kg
REACH    1        0     1  0.7646E+02  0.7829E-01  0.8688E-01  0.0000E+00  0.7829E-01  0.4653E+00  0.4653E+00  0.6199E+02  0.3338E+01  0.3061E+01  0.4565E+00  0.3734E+00  0.5196E+02  0.5766E+02  0.0000E+00  0.0000E+00  0.0000E+00  0.0000E+00  0.1174E+00  0.2527E+00  0.0000E+00  0.0000E+00  0.0000E+00  0.0000E+00  0.0000E+00  0.2252E-01  0.0000E+00  0.0000E+00  0.0000E+00  0.0000E+00  0.0000E+00  0.0000E+00  0.0000E+00  0.0000E+00  0.0000E+00  0.0000E+00  0.0000E+00  0.0000E+00  0.0000E+00  0.0000E+00  0.0000E+00  0.0000E+00  0.0000E+00
REACH    2        0     1  0.8510E+02  0.5381E-01  0.7210E-01  0.0000E+00  0.5381E-01  0.1251E+00  0.1251E+00  0.2009E+02  0.7647E+00  0.8467E+00  0.1053E+00  0.1040E+00  0.3087E+02  0.4137E+02  0.0000E+00  0.0000E+00  0.0000E+00  0.0000E+00  0.4840E-01  0.1041E+00  0.0000E+00  0.0000E+00  0.0000E+00  0.0000E+00  0.0000E+00  0.1869E-01  0.0000E+00  0.0000E+00  0.0000E+00  0.0000E+00  0.0000E+00  0.0000E+00  0.0000E+00  0.0000E+00  0.0000E+00  0.0000E+00  0.0000E+00  0.0000E+00  0.0000E+00  0.0000E+00  0.0000E+00  0.0000E+00  0.0000E+00
REACH    3        0     1  0.1958E+03  0.1783E+00  0.2198E+00  0.1438E-02  0.1489E+00  0.6296E+00  0.8038E+00  0.4233E+02  0.4223E+01  0.4401E+01  0.5257E+00  0.4744E+00  0.1160E+03  0.1500E+03  0.0000E+00  0.0000E+00  0.0000E+00  0.0000E+00  0.3802E+00  0.7226E+00  0.0000E+00  0.0000E+00  0.0000E+00  0.0000E+00  0.4121E-01  0.8279E+02  0.0000E+00  0.0000E+00  0.0000E+00  0.0000E+00  0.0000E+00  0.0000E+00  0.0000E+00  0.0000E+00  0.0000E+00  0.0000E+00  0.0000E+00  0.0000E+00  0.0000E+00  0.0000E+00  0.0000E+00  0.0000E+00  0.0000E+00
REACH    4        0     1  0.3629E+02  0.4447E-01  0.4428E-01  0.1465E-03  0.1515E-01  0.3322E-02  0.3322E-02  0.8682E+00  0.4158E-01  0.3421E-01  0.6635E-02  0.4869E-02  0.8735E+01  0.8697E+01  0.0000E+00  0.0000E+00  0.0000E+00  0.0000E+00  0.3843E-02  0.1006E-01  0.0000E+00  0.0000E+00  0.0000E+00  0.0000E+00  0.0000E+00  0.1148E-01  0.0000E+00  0.0000E+00  0.0000E+00  0.0000E+00  0.0000E+00  0.0000E+00  0.0000E+00  0.0000E+00  0.0000E+00  0.0000E+00  0.0000E+00  0.0000E+00  0.0000E+00  0.0000E+00  0.0000E+00  0.0000E+00  0.0000E+00
REACH    5        0     1  0.2911E+03  0.3177E+00  0.3333E+00  0.0000E+00  0.3177E+00  0.1049E+01  0.9716E+00  0.3374E+02  0.4600E+01  0.3989E+01  0.5237E+00  0.4050E+00  0.1844E+03  0.1935E+03  0.0000E+00  0.0000E+00  0.0000E+00  0.0000E+00  0.8003E+00  0.9863E+00  0.0000E+00  0.0000E+00  0.0000E+00  0.0000E+00  0.8280E+02  0.2606E+03  0.0000E+00  0.0000E+00  0.0000E+00  0.0000E+00  0.0000E+00  0.0000E+00  0.0000E+00  0.0000E+00  0.0000E+00  0.0000E+00  0.0000E+00  0.0000E+00  0.0000E+00  0.0000E+00  0.0000E+00  0.0000E+00  0.0000E+00
REACH    1        0     2  0.7646E+02  0.4928E-01  0.7107E-01  0.0000E+00  0.4928E-01  0.2230E+00  0.2230E+00  0.3632E+02  0.1638E+01  0.1964E+01  0.2235E+00  0.2401E+00  0.2757E+02  0.3976E+02  0.0000E+00  0.0000E+00  0.0000E+00  0.0000E+00  0.5512E-01  0.1564E+00  0.0000E+00  0.0000E+00  0.0000E+00  0.0000E+00  0.0000E+00  0.1842E-01  0.0000E+00  0.0000E+00  0.0000E+00  0.0000E+00  0.0000E+00  0.0000E+00  0.0000E+00  0.0000E+00  0.0000E+00  0.0000E+00  0.0000E+00  0.0000E+00  0.0000E+00  0.0000E+00  0.0000E+00  0.0000E+00  0.0000E+00
REACH    2        0     2  0.8510E+02  0.3574E-01  0.5681E-01  0.0000E+00  0.3574E-01  0.4174E-01  0.4174E-01  0.8504E+01  0.2677E+00  0.3538E+00  0.3670E-01  0.4346E-01  0.1556E+02  0.2473E+02  0.0000E+00  0.0000E+00  0.0000E+00  0.0000E+00  0.1612E-01  0.4982E-01  0.0000E+00  0.0000E+00  0.0000E+00  0.0000E+00  0.0000E+00  0.1473E-01  0.0000E+00  0.0000E+00  0.0000E+00  0.0000E+00  0.0000E+00  0.0000E+00  0.0000E+00  0.0000E+00  0.0000E+00  0.0000E+00  0.0000E+00  0.0000E+00  0.0000E+00  0.0000E+00  0.0000E+00  0.0000E+00  0.0000E+00
REACH    3        0     2  0.1958E+03  0.1436E+00  0.1441E+00  0.0000E+00  0.1436E+00  0.2938E+00  0.2601E+00  0.2089E+02  0.2568E+01  0.2143E+01  0.3218E+00  0.2406E+00  0.7794E+02  0.7823E+02  0.0000E+00  0.0000E+00  0.0000E+00  0.0000E+00  0.2243E+00  0.3047E+00  0.0000E+00  0.0000E+00  0.0000E+00  0.0000E+00  0.3315E-01  0.9981E-01  0.0000E+00  0.0000E+00  0.0000E+00  0.0000E+00  0.0000E+00  0.0000E+00  0.0000E+00  0.0000E+00  0.0000E+00  0.0000E+00  0.0000E+00  0.0000E+00  0.0000E+00  0.0000E+00  0.0000E+00  0.0000E+00  0.0000E+00
REACH    4        0     2  0.3629E+02  0.3823E-01  0.3798E-01  0.1958E-03  0.1515E-01  0.2424E-02  0.2424E-02  0.7385E+00  0.3282E-01  0.2711E-01  0.5287E-02  0.3913E-02  0.7449E+01  0.7402E+01  0.0000E+00  0.0000E+00  0.0000E+00  0.0000E+00  0.3012E-02  0.8005E-02  0.0000E+00  0.0000E+00  0.0000E+00  0.0000E+00  0.0000E+00  0.9846E-02  0.0000E+00  0.0000E+00  0.0000E+00  0.0000E+00  0.0000E+00  0.0000E+00  0.0000E+00  0.0000E+00  0.0000E+00  0.0000E+00  0.0000E+00  0.0000E+00  0.0000E+00  0.0000E+00  0.0000E+00  0.0000E+00  0.0000E+00
REACH    5        0     2  0.2911E+03  0.2175E+00  0.2846E+00  0.0000E+00  0.2175E+00  0.3873E+00  0.4934E+00  0.2007E+02  0.2255E+01  0.2453E+01  0.2675E+00  0.2606E+00  0.1007E+03  0.1318E+03  0.0000E+00  0.0000E+00  0.0000E+00  0.0000E+00  0.3476E+00  0.5497E+00  0.0000E+00  0.0000E+00  0.0000E+00  0.0000E+00  0.1097E+00  0.4304E+00  0.0000E+00  0.0000E+00  0.0000E+00  0.0000E+00  0.0000E+00  0.0000E+00  0.0000E+00  0.0000E+00  0.0000E+00  0.0000E+00  0.0000E+00  0.0000E+00  0.0000E+00  0.0000E+00  0.0000E+00  0.0000E+00  0.0000E+00
REACH    1        0     3  0.7646E+02  0.3450E-01  0.5568E-01  0.0000E+00  0.3450E-01  0.1076E+00  0.1076E+00  0.2236E+02  0.8045E+00  0.1068E+01  0.1096E+00  0.1292E+00  0.1585E+02  0.2558E+02  0.0000E+00  0.0000E+00  0.0000E+00  0.0000E+00  0.2613E-01  0.8890E-01  0.0000E+00  0.0000E+00  0.0000E+00  0.0000E+00  0.0000E+00  0.1443E-01  0.0000E+00  0.0000E+00  0.0000E+00  0.0000E+00  0.0000E+00  0.0000E+00  0.0000E+00  0.0000E+00  0.0000E+00  0.0000E+00  0.0000E+00  0.0000E+00  0.0000E+00  0.0000E+00  0.0000E+00  0.0000E+00  0.0000E+00
REACH    2        0     3  0.8510E+02  0.2774E-01  0.4455E-01  0.0000E+00  0.2774E-01  0.1419E-01  0.1419E-01  0.3686E+01  0.9388E-01  0.1240E+00  0.1283E-01  0.1506E-01  0.9848E+01  0.1582E+02  0.0000E+00  0.0000E+00  0.0000E+00  0.0000E+00  0.5446E-02  0.2343E-01  0.0000E+00  0.0000E+00  0.0000E+00  0.0000E+00  0.0000E+00  0.1155E-01  0.0000E+00  0.0000E+00  0.0000E+00  0.0000E+00  0.0000E+00  0.0000E+00  0.0000E+00  0.0000E+00  0.0000E+00  0.0000E+00  0.0000E+00  0.0000E+00  0.0000E+00  0.0000E+00  0.0000E+00  0.0000E+00  0.0000E+00
REACH    3        0     3  0.1958E+03  0.1132E+00  0.1310E+00  0.0000E+00  0.1132E+00  0.1445E+00  0.1859E+00  0.1642E+02  0.1391E+01  0.1324E+01  0.1748E+00  0.1478E+00  0.5225E+02  0.6047E+02  0.0000E+00  0.0000E+00  0.0000E+00  0.0000E+00  0.1267E+00  0.2076E+00  0.0000E+00  0.0000E+00  0.0000E+00  0.0000E+00  0.2598E-01  0.9021E-01  0.0000E+00  0.0000E+00  0.0000E+00  0.0000E+00  0.0000E+00  0.0000E+00  0.0000E+00  0.0000E+00  0.0000E+00  0.0000E+00  0.0000E+00  0.0000E+00  0.0000E+00  0.0000E+00  0.0000E+00  0.0000E+00  0.0000E+00
REACH    4        0     3  0.3629E+02  0.3298E-01  0.3272E-01  0.2150E-03  0.1515E-01  0.1983E-02  0.1983E-02  0.7014E+00  0.2736E-01  0.2232E-01  0.4418E-02  0.3202E-02  0.6473E+01  0.6421E+01  0.0000E+00  0.0000E+00  0.0000E+00  0.0000E+00  0.2507E-02  0.7149E-02  0.0000E+00  0.0000E+00  0.0000E+00  0.0000E+00  0.0000E+00  0.8481E-02  0.0000E+00  0.0000E+00  0.0000E+00  0.0000E+00  0.0000E+00  0.0000E+00  0.0000E+00  0.0000E+00  0.0000E+00  0.0000E+00  0.0000E+00  0.0000E+00  0.0000E+00  0.0000E+00  0.0000E+00  0.0000E+00  0.0000E+00
REACH    5        0     3  0.2911E+03  0.1886E+00  0.2441E+00  0.0000E+00  0.1886E+00  0.2526E+00  0.3747E+00  0.1777E+02  0.1391E+01  0.1480E+01  0.1629E+00  0.1540E+00  0.7627E+02  0.9870E+02  0.0000E+00  0.0000E+00  0.0000E+00  0.0000E+00  0.2329E+00  0.3678E+00  0.0000E+00  0.0000E+00  0.0000E+00  0.0000E+00  0.9869E-01  0.3831E+00  0.0000E+00  0.0000E+00  0.0000E+00  0.0000E+00  0.0000E+00  0.0000E+00  0.0000E+00  0.0000E+00  0.0000E+00  0.0000E+00  0.0000E+00  0.0000E+00  0.0000E+00  0.0000E+00  0.0000E+00  0.0000E+00  0.0000E+00
REACH    1        0     4  0.7646E+02  0.2647E-01  0.4333E-01  0.0000E+00  0.2647E-01  0.5213E-01  0.5213E-01  0.1392E+02  0.3952E+00  0.5246E+00  0.5376E-01  0.6269E-01  0.1006E+02  0.1646E+02  0.0000E+00  0.0000E+00  0.0000E+00  0.0000E+00  0.1248E-01  0.5289E-01  0.0000E+00  0.0000E+00  0.0000E+00  0.0000E+00  0.0000E+00  0.1123E-01  0.0000E+00  0.0000E+00  0.0000E+00  0.0000E+00  0.0000E+00  0.0000E+00  0.0000E+00  0.0000E+00  0.0000E+00  0.0000E+00  0.0000E+00  0.0000E+00  0.0000E+00  0.0000E+00  0.0000E+00  0.0000E+00  0.0000E+00
REACH    2        0     4  0.8510E+02  0.2338E-01  0.3557E-01  0.0000E+00  0.2338E-01  0.4870E-02  0.4870E-02  0.1585E+01  0.3295E-01  0.4065E-01  0.4496E-02  0.4874E-02  0.7443E+01  0.1132E+02  0.0000E+00  0.0000E+00  0.0000E+00  0.0000E+00  0.1861E-02  0.8494E-02  0.0000E+00  0.0000E+00  0.0000E+00  0.0000E+00  0.0000E+00  0.9219E-02  0.0000E+00  0.0000E+00  0.0000E+00  0.0000E+00  0.0000E+00  0.0000E+00  0.0000E+00  0.0000E+00  0.0000E+00  0.0000E+00  0.0000E+00  0.0000E+00  0.0000E+00  0.0000E+00  0.0000E+00  0.0000E+00  0.0000E+00
REACH    3        0     4  0.1958E+03  0.8966E-01  0.1135E+00  0.0000E+00  0.8966E-01  0.7501E-01  0.1237E+00  0.1261E+02  0.7246E+00  0.7439E+00  0.9193E-01  0.8292E-01  0.3659E+02  0.4633E+02  0.0000E+00  0.0000E+00  0.0000E+00  0.0000E+00  0.7286E-01  0.1350E+00  0.0000E+00  0.0000E+00  0.0000E+00  0.0000E+00  0.2045E-01  0.7767E-01  0.0000E+00  0.0000E+00  0.0000E+00  0.0000E+00  0.0000E+00  0.0000E+00  0.0000E+00  0.0000E+00  0.0000E+00  0.0000E+00  0.0000E+00  0.0000E+00  0.0000E+00  0.0000E+00  0.0000E+00  0.0000E+00  0.0000E+00
REACH    4        0     4  0.3629E+02  0.2853E-01  0.2822E-01  0.2562E-03  0.1515E-01  0.1667E-02  0.1667E-02  0.6836E+00  0.2309E-01  0.1851E-01  0.3732E-02  0.2630E-02  0.5659E+01  0.5598E+01  0.0000E+00  0.0000E+00  0.0000E+00  0.0000E+00  0.2116E-02  0.6279E-02  0.0000E+00  0.0000E+00  0.0000E+00  0.0000E+00  0.0000E+00  0.7314E-02  0.0000E+00  0.0000E+00  0.0000E+00  0.0000E+00  0.0000E+00  0.0000E+00  0.0000E+00  0.0000E+00  0.0000E+00  0.0000E+00  0.0000E+00  0.0000E+00  0.0000E+00  0.0000E+00  0.0000E+00  0.0000E+00  0.0000E+00
REACH    5        0     4  0.2911E+03  0.1601E+00  0.2085E+00  0.0000E+00  0.1601E+00  0.1590E+00  0.3433E+00  0.1906E+02  0.7853E+00  0.8289E+00  0.9174E-01  0.8509E-01  0.5813E+02  0.7567E+02  0.0000E+00  0.0000E+00  0.0000E+00  0.0000E+00  0.1507E+00  0.2516E+00  0.0000E+00  0.0000E+00  0.0000E+00  0.0000E+00  0.8499E-01  0.3319E+00  0.0000E+00  0.0000E+00  0.0000E+00  0.0000E+00  0.0000E+00  0.0000E+00  0.0000E+00  0.0000E+00  0.0000E+00  0.0000E+00  0.0000E+00  0.0000E+00  0.0000E+00  0.0000E+00  0.0000E+00  0.0000E+00  0.0000E+00
REACH    1        0     5  0.7646E+02  0.2176E-01  0.3419E-01  0.0000E+00  0.2176E-01  0.2535E-01  0.2535E-01  0.8580E+01  0.1943E+00  0.2437E+00  0.2639E-01  0.2872E-01  0.7083E+01  0.1113E+02  0.0000E+00  0.0000E+00  0.0000E+00  0.0000E+00  0.6004E-02  0.2831E-01  0.0000E+00  0.0000E+00  0.0000E+00  0.0000E+00  0.0000E+00  0.8862E-02  0.0000E+00  0.0000E+00  0.0000E+00  0.0000E+00  0.0000E+00  0.0000E+00  0.0000E+00  0.0000E+00  0.0000E+00  0.0000E+00  0.0000E+00  0.0000E+00  0.0000E+00  0.0000E+00  0.0000E+00  0.0000E+00  0.0000E+00
REACH    2        0     5  0.8510E+02  0.2049E-01  0.2914E-01  0.0000E+00  0.2049E-01  0.1683E-02  0.1683E-02  0.6683E+00  0.1158E-01  0.1314E-01  0.1580E-02  0.1556E-02  0.6231E+01  0.8861E+01  0.0000E+00  0.0000E+00  0.0000E+00  0.0000E+00  0.6418E-03  0.2738E-02  0.0000E+00  0.0000E+00  0.0000E+00  0.0000E+00  0.0000E+00  0.7554E-02  0.0000E+00  0.0000E+00  0.0000E+00  0.0000E+00  0.0000E+00  0.0000E+00  0.0000E+00  0.0000E+00  0.0000E+00  0.0000E+00  0.0000E+00  0.0000E+00  0.0000E+00  0.0000E+00  0.0000E+00  0.0000E+00  0.0000E+00
REACH    3        0     5  0.1958E+03  0.7231E-01  0.9611E-01  0.0000E+00  0.7231E-01  0.4138E-01  0.8909E-01  0.1073E+02  0.3842E+00  0.4075E+00  0.4975E-01  0.4579E-01  0.2716E+02  0.3610E+02  0.0000E+00  0.0000E+00  0.0000E+00  0.0000E+00  0.4025E-01  0.8440E-01  0.0000E+00  0.0000E+00  0.0000E+00  0.0000E+00  0.1642E-01  0.6546E-01  0.0000E+00  0.0000E+00  0.0000E+00  0.0000E+00  0.0000E+00  0.0000E+00  0.0000E+00  0.0000E+00  0.0000E+00  0.0000E+00  0.0000E+00  0.0000E+00  0.0000E+00  0.0000E+00  0.0000E+00  0.0000E+00  0.0000E+00
REACH    4        0     5  0.3629E+02  0.2473E-01  0.2445E-01  0.2245E-03  0.1515E-01  0.1409E-02  0.1409E-02  0.6670E+00  0.1954E-01  0.1542E-01  0.3161E-02  0.2164E-02  0.4967E+01  0.4911E+01  0.0000E+00  0.0000E+00  0.0000E+00  0.0000E+00  0.1791E-02  0.5314E-02  0.0000E+00  0.0000E+00  0.0000E+00  0.0000E+00  0.0000E+00  0.6337E-02  0.0000E+00  0.0000E+00  0.0000E+00  0.0000E+00  0.0000E+00  0.0000E+00  0.0000E+00  0.0000E+00  0.0000E+00  0.0000E+00  0.0000E+00  0.0000E+00  0.0000E+00  0.0000E+00  0.0000E+00  0.0000E+00  0.0000E+00
REACH    5        0     5  0.2911E+03  0.1348E+00  0.1773E+00  0.0000E+00  0.1348E+00  0.1080E+00  0.2694E+00  0.1759E+02  0.4349E+00  0.4564E+00  0.5117E-01  0.4659E-01  0.4537E+02  0.5966E+02  0.0000E+00  0.0000E+00  0.0000E+00  0.0000E+00  0.9461E-01  0.1669E+00  0.0000E+00  0.0000E+00  0.0000E+00  0.0000E+00  0.7179E-01  0.2832E+00  0.0000E+00  0.0000E+00  0.0000E+00  0.0000E+00  0.0000E+00  0.0000E+00  0.0000E+00  0.0000E+00  0.0000E+00  0.0000E+00  0.0000E+00  0.0000E+00  0.0000E+00  0.0000E+00  0.0000E+00  0.0000E+00  0.0000E+00
REACH    1        0     6  0.7646E+02  0.1873E-01  0.2763E-01  0.0000E+00  0.1873E-01  0.1236E-01  0.1236E-01  0.5177E+01  0.9550E-01  0.1123E+00  0.1297E-01  0.1321E-01  0.5474E+01  0.8072E+01  0.0000E+00  0.0000E+00  0.0000E+00  0.0000E+00  0.2902E-02  0.1284E-01  0.0000E+00  0.0000E+00  0.0000E+00  0.0000E+00  0.0000E+00  0.7161E-02  0.0000E+00  0.0000E+00  0.0000E+00  0.0000E+00  0.0000E+00  0.0000E+00  0.0000E+00  0.0000E+00  0.0000E+00  0.0000E+00  0.0000E+00  0.0000E+00  0.0000E+00  0.0000E+00  0.0000E+00  0.0000E+00  0.0000E+00
REACH    2        0     6  0.8510E+02  0.1833E-01  0.2452E-01  0.0000E+00  0.1833E-01  0.5844E-03  0.5844E-03  0.2758E+00  0.4069E-02  0.4340E-02  0.5605E-03  0.5181E-03  0.5485E+01  0.7338E+01  0.0000E+00  0.0000E+00  0.0000E+00  0.0000E+00  0.2234E-03  0.8966E-03  0.0000E+00  0.0000E+00  0.0000E+00  0.0000E+00  0.0000E+00  0.6356E-02  0.0000E+00  0.0000E+00  0.0000E+00  0.0000E+00  0.0000E+00  0.0000E+00  0.0000E+00  0.0000E+00  0.0000E+00  0.0000E+00  0.0000E+00  0.0000E+00  0.0000E+00  0.0000E+00  0.0000E+00  0.0000E+00  0.0000E+00
REACH    3        0     6  0.1958E+03  0.5966E-01  0.8073E-01  0.0000E+00  0.5966E-01  0.2439E-01  0.6788E-01  0.9733E+01  0.2184E+00  0.2355E+00  0.2930E-01  0.2739E-01  0.2126E+02  0.2877E+02  0.0000E+00  0.0000E+00  0.0000E+00  0.0000E+00  0.2113E-01  0.5049E-01  0.0000E+00  0.0000E+00  0.0000E+00  0.0000E+00  0.1352E-01  0.5486E-01  0.0000E+00  0.0000E+00  0.0000E+00  0.0000E+00  0.0000E+00  0.0000E+00  0.0000E+00  0.0000E+00  0.0000E+00  0.0000E+00  0.0000E+00  0.0000E+00  0.0000E+00  0.0000E+00  0.0000E+00  0.0000E+00  0.0000E+00
REACH    4        0     6  0.3629E+02  0.2149E-01  0.2129E-01  0.1837E-03  0.1507E-01  0.1193E-02  0.1193E-02  0.6483E+00  0.1654E-01  0.1307E-01  0.2678E-02  0.1834E-02  0.4373E+01  0.4335E+01  0.0000E+00  0.0000E+00  0.0000E+00  0.0000E+00  0.1518E-02  0.4512E-02  0.0000E+00  0.0000E+00  0.0000E+00  0.0000E+00  0.0000E+00  0.5519E-02  0.0000E+00  0.0000E+00  0.0000E+00  0.0000E+00  0.0000E+00  0.0000E+00  0.0000E+00  0.0000E+00  0.0000E+00  0.0000E+00  0.0000E+00  0.0000E+00  0.0000E+00  0.0000E+00  0.0000E+00  0.0000E+00  0.0000E+00
REACH    5        0     6  0.2911E+03  0.1134E+00  0.1502E+00  0.0000E+00  0.1134E+00  0.7819E-01  0.2139E+00  0.1648E+02  0.2548E+00  0.2690E+00  0.3091E-01  0.2828E-01  0.3635E+02  0.4814E+02  0.0000E+00  0.0000E+00  0.0000E+00  0.0000E+00  0.5755E-01  0.1082E+00  0.0000E+00  0.0000E+00  0.0000E+00  0.0000E+00  0.6038E-01  0.2399E+00  0.0000E+00  0.0000E+00  0.0000E+00  0.0000E+00  0.0000E+00  0.0000E+00  0.0000E+00  0.0000E+00  0.0000E+00  0.0000E+00  0.0000E+00  0.0000E+00  0.0000E+00  0.0000E+00  0.0000E+00  0.0000E+00  0.0000E+00
REACH    1        0     7  0.7646E+02  0.1663E-01  0.2287E-01  0.0000E+00  0.1663E-01  0.6038E-02  0.6038E-02  0.3056E+01  0.4696E-01  0.4964E-01  0.6373E-02  0.5659E-02  0.4542E+01  0.6246E+01  0.0000E+00  0.0000E+00  0.0000E+00  0.0000E+00  0.1409E-02  0.5812E-02  0.0000E+00  0.0000E+00  0.0000E+00  0.0000E+00  0.0000E+00  0.5927E-02  0.0000E+00  0.0000E+00  0.0000E+00  0.0000E+00  0.0000E+00  0.0000E+00  0.0000E+00  0.0000E+00  0.0000E+00  0.0000E+00  0.0000E+00  0.0000E+00  0.0000E+00  0.0000E+00  0.0000E+00  0.0000E+00  0.0000E+00
REACH    2        0     7  0.8510E+02  0.1658E-01  0.2104E-01  0.0000E+00  0.1658E-01  0.2037E-03  0.2037E-03  0.1120E+00  0.1432E-02  0.1396E-02  0.2045E-03  0.1675E-03  0.4947E+01  0.6278E+01  0.0000E+00  0.0000E+00  0.0000E+00  0.0000E+00  0.7885E-04  0.3002E-03  0.0000E+00  0.0000E+00  0.0000E+00  0.0000E+00  0.0000E+00  0.5454E-02  0.0000E+00  0.0000E+00  0.0000E+00  0.0000E+00  0.0000E+00  0.0000E+00  0.0000E+00  0.0000E+00  0.0000E+00  0.0000E+00  0.0000E+00  0.0000E+00  0.0000E+00  0.0000E+00  0.0000E+00  0.0000E+00  0.0000E+00
REACH    3        0     7  0.1958E+03  0.5023E-01  0.6774E-01  0.0000E+00  0.5023E-01  0.1537E-01  0.5362E-01  0.9163E+01  0.1324E+00  0.1372E+00  0.1828E-01  0.1592E-01  0.1731E+02  0.2334E+02  0.0000E+00  0.0000E+00  0.0000E+00  0.0000E+00  0.1206E-01  0.3581E-01  0.0000E+00  0.0000E+00  0.0000E+00  0.0000E+00  0.1138E-01  0.4604E-01  0.0000E+00  0.0000E+00  0.0000E+00  0.0000E+00  0.0000E+00  0.0000E+00  0.0000E+00  0.0000E+00  0.0000E+00  0.0000E+00  0.0000E+00  0.0000E+00  0.0000E+00  0.0000E+00  0.0000E+00  0.0000E+00  0.0000E+00
REACH    4        0     7  0.3629E+02  0.1871E-01  0.1840E-01  0.2780E-03  0.1507E-01  0.1010E-02  0.1010E-02  0.6353E+00  0.1401E-01  0.1059E-01  0.2270E-02  0.1441E-02  0.3864E+01  0.3800E+01  0.0000E+00  0.0000E+00  0.0000E+00  0.0000E+00  0.1286E-02  0.3793E-02  0.0000E+00  0.0000E+00  0.0000E+00  0.0000E+00  0.0000E+00  0.4770E-02  0.0000E+00  0.0000E+00  0.0000E+00  0.0000E+00  0.0000E+00  0.0000E+00  0.0000E+00  0.0000E+00  0.0000E+00  0.0000E+00  0.0000E+00  0.0000E+00  0.0000E+00  0.0000E+00  0.0000E+00  0.0000E+00  0.0000E+00
REACH    5        0     7  0.2911E+03  0.9554E-01  0.1268E+00  0.0000E+00  0.9554E-01  0.5938E-01  0.1547E+00  0.1412E+02  0.1510E+00  0.1541E+00  0.1823E-01  0.1563E-01  0.2969E+02  0.3940E+02  0.0000E+00  0.0000E+00  0.0000E+00  0.0000E+00  0.4093E-01  0.8418E-01  0.0000E+00  0.0000E+00  0.0000E+00  0.0000E+00  0.5081E-01  0.2023E+00  0.0000E+00  0.0000E+00  0.0000E+00  0.0000E+00  0.0000E+00  0.0000E+00  0.0000E+00  0.0000E+00  0.0000E+00  0.0000E+00  0.0000E+00  0.0000E+00  0.0000E+00  0.0000E+00  0.0000E+00  0.0000E+00  0.0000E+00
REACH    1        0     8  0.7646E+02  0.1505E-01  0.1940E-01  0.0000E+00  0.1505E-01  0.2955E-02  0.2955E-02  0.1763E+01  0.2309E-01  0.2287E-01  0.3135E-02  0.2607E-02  0.3956E+01  0.5101E+01  0.0000E+00  0.0000E+00  0.0000E+00  0.0000E+00  0.6863E-03  0.2654E-02  0.0000E+00  0.0000E+00  0.0000E+00  0.0000E+00  0.0000E+00  0.5028E-02  0.0000E+00  0.0000E+00  0.0000E+00  0.0000E+00  0.0000E+00  0.0000E+00  0.0000E+00  0.0000E+00  0.0000E+00  0.0000E+00  0.0000E+00  0.0000E+00  0.0000E+00  0.0000E+00  0.0000E+00  0.0000E+00  0.0000E+00
REACH    2        0     8  0.8510E+02  0.1513E-01  0.1838E-01  0.0000E+00  0.1513E-01  0.7118E-04  0.7118E-04  0.4483E-01  0.5057E-03  0.4720E-03  0.8035E-04  0.6297E-04  0.4521E+01  0.5492E+01  0.0000E+00  0.0000E+00  0.0000E+00  0.0000E+00  0.3006E-04  0.1095E-03  0.0000E+00  0.0000E+00  0.0000E+00  0.0000E+00  0.0000E+00  0.4764E-02  0.0000E+00  0.0000E+00  0.0000E+00  0.0000E+00  0.0000E+00  0.0000E+00  0.0000E+00  0.0000E+00  0.0000E+00  0.0000E+00  0.0000E+00  0.0000E+00  0.0000E+00  0.0000E+00  0.0000E+00  0.0000E+00  0.0000E+00
REACH    3        0     8  0.1958E+03  0.4311E-01  0.5715E-01  0.0000E+00  0.4311E-01  0.1032E-01  0.4040E-01  0.8182E+01  0.8836E-01  0.8998E-01  0.1263E-01  0.1080E-01  0.1452E+02  0.1924E+02  0.0000E+00  0.0000E+00  0.0000E+00  0.0000E+00  0.7543E-02  0.2528E-01  0.0000E+00  0.0000E+00  0.0000E+00  0.0000E+00  0.9791E-02  0.3893E-01  0.0000E+00  0.0000E+00  0.0000E+00  0.0000E+00  0.0000E+00  0.0000E+00  0.0000E+00  0.0000E+00  0.0000E+00  0.0000E+00  0.0000E+00  0.0000E+00  0.0000E+00  0.0000E+00  0.0000E+00  0.0000E+00  0.0000E+00
REACH    4        0     8  0.3629E+02  0.1634E-01  0.1596E-01  0.3317E-03  0.1507E-01  0.8554E-03  0.8554E-03  0.6204E+00  0.1187E-01  0.8902E-02  0.1924E-02  0.1212E-02  0.3426E+01  0.3345E+01  0.0000E+00  0.0000E+00  0.0000E+00  0.0000E+00  0.1089E-02  0.3191E-02  0.0000E+00  0.0000E+00  0.0000E+00  0.0000E+00  0.0000E+00  0.4137E-02  0.0000E+00  0.0000E+00  0.0000E+00  0.0000E+00  0.0000E+00  0.0000E+00  0.0000E+00  0.0000E+00  0.0000E+00  0.0000E+00  0.0000E+00  0.0000E+00  0.0000E+00  0.0000E+00  0.0000E+00  0.0000E+00  0.0000E+00
REACH    5        0     8  0.2911E+03  0.8099E-01  0.1070E+00  0.0000E+00  0.8099E-01  0.4373E-01  0.1106E+00  0.1197E+02  0.1006E+00  0.1021E+00  0.1247E-01  0.1062E-01  0.2465E+02  0.3256E+02  0.0000E+00  0.0000E+00  0.0000E+00  0.0000E+00  0.2917E-01  0.6255E-01  0.0000E+00  0.0000E+00  0.0000E+00  0.0000E+00  0.4307E-01  0.1707E+00  0.0000E+00  0.0000E+00  0.0000E+00  0.0000E+00  0.0000E+00  0.0000E+00  0.0000E+00  0.0000E+00  0.0000E+00  0.0000E+00  0.0000E+00  0.0000E+00  0.0000E+00  0.0000E+00  0.0000E+00  0.0000E+00  0.0000E+00
REACH    1        0     9  0.7646E+02  0.1379E-01  0.1693E-01  0.0000E+00  0.1379E-01  0.1448E-02  0.1448E-02  0.9898E+00  0.1136E-01  0.1060E-01  0.1544E-02  0.1199E-02  0.3554E+01  0.4364E+01  0.0000E+00  0.0000E+00  0.0000E+00  0.0000E+00  0.3354E-03  0.1235E-02  0.0000E+00  0.0000E+00  0.0000E+00  0.0000E+00  0.0000E+00  0.4388E-02  0.0000E+00  0.0000E+00  0.0000E+00  0.0000E+00  0.0000E+00  0.0000E+00  0.0000E+00  0.0000E+00  0.0000E+00  0.0000E+00  0.0000E+00  0.0000E+00  0.0000E+00  0.0000E+00  0.0000E+00  0.0000E+00  0.0000E+00
REACH    2        0     9  0.8510E+02  0.1389E-01  0.1638E-01  0.0000E+00  0.1389E-01  0.2492E-04  0.2492E-04  0.1761E-01  0.1804E-03  0.1617E-03  0.3852E-04  0.2872E-04  0.4165E+01  0.4912E+01  0.0000E+00  0.0000E+00  0.0000E+00  0.0000E+00  0.1300E-04  0.4599E-04  0.0000E+00  0.0000E+00  0.0000E+00  0.0000E+00  0.0000E+00  0.4247E-02  0.0000E+00  0.0000E+00  0.0000E+00  0.0000E+00  0.0000E+00  0.0000E+00  0.0000E+00  0.0000E+00  0.0000E+00  0.0000E+00  0.0000E+00  0.0000E+00  0.0000E+00  0.0000E+00  0.0000E+00  0.0000E+00  0.0000E+00
REACH    3        0     9  0.1958E+03  0.3784E-01  0.4890E-01  0.0000E+00  0.3784E-01  0.7292E-02  0.4083E-01  0.9665E+01  0.6274E-01  0.6162E-01  0.9196E-02  0.7512E-02  0.1251E+02  0.1616E+02  0.0000E+00  0.0000E+00  0.0000E+00  0.0000E+00  0.5123E-02  0.1986E-01  0.0000E+00  0.0000E+00  0.0000E+00  0.0000E+00  0.8635E-02  0.3347E-01  0.0000E+00  0.0000E+00  0.0000E+00  0.0000E+00  0.0000E+00  0.0000E+00  0.0000E+00  0.0000E+00  0.0000E+00  0.0000E+00  0.0000E+00  0.0000E+00  0.0000E+00  0.0000E+00  0.0000E+00  0.0000E+00  0.0000E+00
REACH    4        0     9  0.3629E+02  0.1432E-01  0.1470E-01  0.0000E+00  0.1432E-01  0.7244E-03  0.7244E-03  0.5703E+00  0.1005E-01  0.7847E-02  0.1631E-02  0.1059E-02  0.3048E+01  0.3131E+01  0.0000E+00  0.0000E+00  0.0000E+00  0.0000E+00  0.9231E-03  0.2844E-02  0.0000E+00  0.0000E+00  0.0000E+00  0.0000E+00  0.0000E+00  0.3811E-02  0.0000E+00  0.0000E+00  0.0000E+00  0.0000E+00  0.0000E+00  0.0000E+00  0.0000E+00  0.0000E+00  0.0000E+00  0.0000E+00  0.0000E+00  0.0000E+00  0.0000E+00  0.0000E+00  0.0000E+00  0.0000E+00  0.0000E+00
REACH    5        0     9  0.2911E+03  0.7031E-01  0.9122E-01  0.0000E+00  0.7031E-01  0.4284E-01  0.8192E-01  0.1039E+02  0.7035E-01  0.6939E-01  0.8813E-02  0.7229E-02  0.2102E+02  0.2726E+02  0.0000E+00  0.0000E+00  0.0000E+00  0.0000E+00  0.2306E-01  0.5073E-01  0.0000E+00  0.0000E+00  0.0000E+00  0.0000E+00  0.3728E-01  0.1451E+00  0.0000E+00  0.0000E+00  0.0000E+00  0.0000E+00  0.0000E+00  0.0000E+00  0.0000E+00  0.0000E+00  0.0000E+00  0.0000E+00  0.0000E+00  0.0000E+00  0.0000E+00  0.0000E+00  0.0000E+00  0.0000E+00  0.0000E+00
REACH    1        0    10  0.7646E+02  0.1275E-01  0.1501E-01  0.0000E+00  0.1275E-01  0.7101E-03  0.7101E-03  0.5476E+00  0.5587E-02  0.5021E-02  0.7634E-03  0.5725E-03  0.3255E+01  0.3832E+01  0.0000E+00  0.0000E+00  0.0000E+00  0.0000E+00  0.1645E-03  0.5809E-03  0.0000E+00  0.0000E+00  0.0000E+00  0.0000E+00  0.0000E+00  0.3891E-02  0.0000E+00  0.0000E+00  0.0000E+00  0.0000E+00  0.0000E+00  0.0000E+00  0.0000E+00  0.0000E+00  0.0000E+00  0.0000E+00  0.0000E+00  0.0000E+00  0.0000E+00  0.0000E+00  0.0000E+00  0.0000E+00  0.0000E+00
REACH    2        0    10  0.8510E+02  0.1283E-01  0.1484E-01  0.0000E+00  0.1283E-01  0.8742E-05  0.8742E-05  0.6819E-02  0.6588E-04  0.5816E-04  0.2421E-04  0.1784E-04  0.3860E+01  0.4465E+01  0.0000E+00  0.0000E+00  0.0000E+00  0.0000E+00  0.6996E-05  0.2428E-04  0.0000E+00  0.0000E+00  0.0000E+00  0.0000E+00  0.0000E+00  0.3846E-02  0.0000E+00  0.0000E+00  0.0000E+00  0.0000E+00  0.0000E+00  0.0000E+00  0.0000E+00  0.0000E+00  0.0000E+00  0.0000E+00  0.0000E+00  0.0000E+00  0.0000E+00  0.0000E+00  0.0000E+00  0.0000E+00  0.0000E+00
REACH    3        0    10  0.1958E+03  0.3314E-01  0.4223E-01  0.0000E+00  0.3314E-01  0.5364E-02  0.3444E-01  0.9439E+01  0.4663E-01  0.4534E-01  0.6967E-02  0.5653E-02  0.1096E+02  0.1397E+02  0.0000E+00  0.0000E+00  0.0000E+00  0.0000E+00  0.3694E-02  0.1412E-01  0.0000E+00  0.0000E+00  0.0000E+00  0.0000E+00  0.7737E-02  0.2957E-01  0.0000E+00  0.0000E+00  0.0000E+00  0.0000E+00  0.0000E+00  0.0000E+00  0.0000E+00  0.0000E+00  0.0000E+00  0.0000E+00  0.0000E+00  0.0000E+00  0.0000E+00  0.0000E+00  0.0000E+00  0.0000E+00  0.0000E+00
REACH    4        0    10  0.3629E+02  0.1240E-01  0.1373E-01  0.0000E+00  0.1240E-01  0.6135E-03  0.6135E-03  0.5172E+00  0.8511E-02  0.7194E-02  0.1382E-02  0.9751E-03  0.2723E+01  0.3015E+01  0.0000E+00  0.0000E+00  0.0000E+00  0.0000E+00  0.7822E-03  0.2599E-02  0.0000E+00  0.0000E+00  0.0000E+00  0.0000E+00  0.0000E+00  0.3559E-02  0.0000E+00  0.0000E+00  0.0000E+00  0.0000E+00  0.0000E+00  0.0000E+00  0.0000E+00  0.0000E+00  0.0000E+00  0.0000E+00  0.0000E+00  0.0000E+00  0.0000E+00  0.0000E+00  0.0000E+00  0.0000E+00  0.0000E+00
REACH    5        0    10  0.2911E+03  0.6167E-01  0.7866E-01  0.0000E+00  0.6167E-01  0.3572E-01  0.6196E-01  0.9116E+01  0.5300E-01  0.5160E-01  0.6757E-02  0.5491E-02  0.1846E+02  0.2354E+02  0.0000E+00  0.0000E+00  0.0000E+00  0.0000E+00  0.1691E-01  0.3876E-01  0.0000E+00  0.0000E+00  0.0000E+00  0.0000E+00  0.3313E-01  0.1268E+00  0.0000E+00  0.0000E+00  0.0000E+00  0.0000E+00  0.0000E+00  0.0000E+00  0.0000E+00  0.0000E+00  0.0000E+00  0.0000E+00  0.0000E+00  0.0000E+00  0.0000E+00  0.0000E+00  0.0000E+00  0.0000E+00  0.0000E+00
REACH    1        0    11  0.7646E+02  0.1186E-01  0.1349E-01  0.0000E+00  0.1186E-01  0.3486E-03  0.3486E-03  0.2991E+00  0.2749E-02  0.2318E-02  0.3795E-03  0.2600E-03  0.3017E+01  0.3430E+01  0.0000E+00  0.0000E+00  0.0000E+00  0.0000E+00  0.8139E-04  0.2776E-03  0.0000E+00  0.0000E+00  0.0000E+00  0.0000E+00  0.0000E+00  0.3496E-02  0.0000E+00  0.0000E+00  0.0000E+00  0.0000E+00  0.0000E+00  0.0000E+00  0.0000E+00  0.0000E+00  0.0000E+00  0.0000E+00  0.0000E+00  0.0000E+00  0.0000E+00  0.0000E+00  0.0000E+00  0.0000E+00  0.0000E+00
REACH    2        0    11  0.8510E+02  0.1190E-01  0.1341E-01  0.0000E+00  0.1190E-01  0.3071E-05  0.3071E-05  0.2650E-02  0.2560E-04  0.2139E-04  0.1918E-04  0.1302E-04  0.3595E+01  0.4051E+01  0.0000E+00  0.0000E+00  0.0000E+00  0.0000E+00  0.6365E-05  0.2152E-04  0.0000E+00  0.0000E+00  0.0000E+00  0.0000E+00  0.0000E+00  0.3476E-02  0.0000E+00  0.0000E+00  0.0000E+00  0.0000E+00  0.0000E+00  0.0000E+00  0.0000E+00  0.0000E+00  0.0000E+00  0.0000E+00  0.0000E+00  0.0000E+00  0.0000E+00  0.0000E+00  0.0000E+00  0.0000E+00  0.0000E+00
REACH    3        0    11  0.1958E+03  0.3022E-01  0.3689E-01  0.0000E+00  0.3022E-01  0.4061E-02  0.2963E-01  0.9295E+01  0.3557E-01  0.3221E-01  0.5376E-02  0.3955E-02  0.9687E+01  0.1183E+02  0.0000E+00  0.0000E+00  0.0000E+00  0.0000E+00  0.2784E-02  0.1020E-01  0.0000E+00  0.0000E+00  0.0000E+00  0.0000E+00  0.6973E-02  0.2554E-01  0.0000E+00  0.0000E+00  0.0000E+00  0.0000E+00  0.0000E+00  0.0000E+00  0.0000E+00  0.0000E+00  0.0000E+00  0.0000E+00  0.0000E+00  0.0000E+00  0.0000E+00  0.0000E+00  0.0000E+00  0.0000E+00  0.0000E+00
REACH    4        0    11  0.3629E+02  0.1108E-01  0.1259E-01  0.0000E+00  0.1108E-01  0.5196E-03  0.5196E-03  0.4776E+00  0.7208E-02  0.6073E-02  0.1172E-02  0.8024E-03  0.2441E+01  0.2773E+01  0.0000E+00  0.0000E+00  0.0000E+00  0.0000E+00  0.6629E-03  0.2259E-02  0.0000E+00  0.0000E+00  0.0000E+00  0.0000E+00  0.0000E+00  0.3264E-02  0.0000E+00  0.0000E+00  0.0000E+00  0.0000E+00  0.0000E+00  0.0000E+00  0.0000E+00  0.0000E+00  0.0000E+00  0.0000E+00  0.0000E+00  0.0000E+00  0.0000E+00  0.0000E+00  0.0000E+00  0.0000E+00  0.0000E+00
REACH    5        0    11  0.2911E+03  0.5453E-01  0.6786E-01  0.0000E+00  0.5453E-01  0.3050E-01  0.9457E-01  0.1613E+02  0.3852E-01  0.3555E-01  0.4828E-02  0.3620E-02  0.1588E+02  0.1976E+02  0.0000E+00  0.0000E+00  0.0000E+00  0.0000E+00  0.1256E-01  0.4671E-01  0.0000E+00  0.0000E+00  0.0000E+00  0.0000E+00  0.2880E-01  0.1075E+00  0.0000E+00  0.0000E+00  0.0000E+00  0.0000E+00  0.0000E+00  0.0000E+00  0.0000E+00  0.0000E+00  0.0000E+00  0.0000E+00  0.0000E+00  0.0000E+00  0.0000E+00  0.0000E+00  0.0000E+00  0.0000E+00  0.0000E+00
REACH    1        0    12  0.7646E+02  0.1109E-01  0.1233E-01  0.0000E+00  0.1109E-01  0.1712E-03  0.1712E-03  0.1607E+00  0.1354E-02  0.1121E-02  0.1906E-03  0.1287E-03  0.2818E+01  0.3132E+01  0.0000E+00  0.0000E+00  0.0000E+00  0.0000E+00  0.4135E-04  0.1379E-03  0.0000E+00  0.0000E+00  0.0000E+00  0.0000E+00  0.0000E+00  0.3196E-02  0.0000E+00  0.0000E+00  0.0000E+00  0.0000E+00  0.0000E+00  0.0000E+00  0.0000E+00  0.0000E+00  0.0000E+00  0.0000E+00  0.0000E+00  0.0000E+00  0.0000E+00  0.0000E+00  0.0000E+00  0.0000E+00  0.0000E+00
REACH    2        0    12  0.8510E+02  0.1109E-01  0.1229E-01  0.0000E+00  0.1109E-01  0.1082E-05  0.1082E-05  0.1019E-02  0.1142E-04  0.9428E-05  0.1907E-04  0.1284E-04  0.3361E+01  0.3725E+01  0.0000E+00  0.0000E+00  0.0000E+00  0.0000E+00  0.6365E-05  0.2116E-04  0.0000E+00  0.0000E+00  0.0000E+00  0.0000E+00  0.0000E+00  0.3186E-02  0.0000E+00  0.0000E+00  0.0000E+00  0.0000E+00  0.0000E+00  0.0000E+00  0.0000E+00  0.0000E+00  0.0000E+00  0.0000E+00  0.0000E+00  0.0000E+00  0.0000E+00  0.0000E+00  0.0000E+00  0.0000E+00  0.0000E+00
REACH    3        0    12  0.1958E+03  0.2748E-01  0.3272E-01  0.0000E+00  0.2748E-01  0.3134E-02  0.2593E-01  0.9173E+01  0.2771E-01  0.2457E-01  0.4227E-02  0.3058E-02  0.8691E+01  0.1035E+02  0.0000E+00  0.0000E+00  0.0000E+00  0.0000E+00  0.2158E-02  0.7708E-02  0.0000E+00  0.0000E+00  0.0000E+00  0.0000E+00  0.6383E-02  0.2280E-01  0.0000E+00  0.0000E+00  0.0000E+00  0.0000E+00  0.0000E+00  0.0000E+00  0.0000E+00  0.0000E+00  0.0000E+00  0.0000E+00  0.0000E+00  0.0000E+00  0.0000E+00  0.0000E+00  0.0000E+00  0.0000E+00  0.0000E+00
REACH    4        0    12  0.3629E+02  0.9801E-02  0.1140E-01  0.0000E+00  0.9801E-02  0.4400E-03  0.4400E-03  0.4467E+00  0.6105E-02  0.5289E-02  0.9941E-03  0.7027E-03  0.2197E+01  0.2555E+01  0.0000E+00  0.0000E+00  0.0000E+00  0.0000E+00  0.5619E-03  0.1961E-02  0.0000E+00  0.0000E+00  0.0000E+00  0.0000E+00  0.0000E+00  0.2955E-02  0.0000E+00  0.0000E+00  0.0000E+00  0.0000E+00  0.0000E+00  0.0000E+00  0.0000E+00  0.0000E+00  0.0000E+00  0.0000E+00  0.0000E+00  0.0000E+00  0.0000E+00  0.0000E+00  0.0000E+00  0.0000E+00  0.0000E+00
REACH    5        0    12  0.2911E+03  0.4856E-01  0.5925E-01  0.0000E+00  0.4856E-01  0.2656E-01  0.7354E-01  0.1437E+02  0.2999E-01  0.2725E-01  0.3800E-02  0.2818E-02  0.1403E+02  0.1712E+02  0.0000E+00  0.0000E+00  0.0000E+00  0.0000E+00  0.9722E-02  0.3559E-01  0.0000E+00  0.0000E+00  0.0000E+00  0.0000E+00  0.2575E-01  0.9426E-01  0.0000E+00  0.0000E+00  0.0000E+00  0.0000E+00  0.0000E+00  0.0000E+00  0.0000E+00  0.0000E+00  0.0000E+00  0.0000E+00  0.0000E+00  0.0000E+00  0.0000E+00  0.0000E+00  0.0000E+00  0.0000E+00  0.0000E+00
REACH    1        0    13  0.7646E+02  0.1042E-01  0.1135E-01  0.0000E+00  0.1042E-01  0.8411E-04  0.8411E-04  0.8576E-01  0.6673E-03  0.5798E-03  0.9785E-04  0.7368E-04  0.2646E+01  0.2884E+01  0.0000E+00  0.0000E+00  0.0000E+00  0.0000E+00  0.2164E-04  0.7076E-04  0.0000E+00  0.0000E+00  0.0000E+00  0.0000E+00  0.0000E+00  0.2942E-02  0.0000E+00  0.0000E+00  0.0000E+00  0.0000E+00  0.0000E+00  0.0000E+00  0.0000E+00  0.0000E+00  0.0000E+00  0.0000E+00  0.0000E+00  0.0000E+00  0.0000E+00  0.0000E+00  0.0000E+00  0.0000E+00  0.0000E+00
REACH    2        0    13  0.8510E+02  0.1038E-01  0.1132E-01  0.0000E+00  0.1038E-01  0.3832E-06  0.3832E-06  0.3919E-03  0.6436E-05  0.5596E-05  0.1907E-04  0.1437E-04  0.3154E+01  0.3440E+01  0.0000E+00  0.0000E+00  0.0000E+00  0.0000E+00  0.6365E-05  0.2083E-04  0.0000E+00  0.0000E+00  0.0000E+00  0.0000E+00  0.0000E+00  0.2934E-02  0.0000E+00  0.0000E+00  0.0000E+00  0.0000E+00  0.0000E+00  0.0000E+00  0.0000E+00  0.0000E+00  0.0000E+00  0.0000E+00  0.0000E+00  0.0000E+00  0.0000E+00  0.0000E+00  0.0000E+00  0.0000E+00  0.0000E+00
REACH    3        0    13  0.1958E+03  0.2515E-01  0.2929E-01  0.0000E+00  0.2515E-01  0.2450E-02  0.2297E-01  0.9076E+01  0.2184E-01  0.2027E-01  0.3359E-02  0.2702E-02  0.7856E+01  0.9147E+01  0.0000E+00  0.0000E+00  0.0000E+00  0.0000E+00  0.1700E-02  0.5938E-02  0.0000E+00  0.0000E+00  0.0000E+00  0.0000E+00  0.5876E-02  0.2053E-01  0.0000E+00  0.0000E+00  0.0000E+00  0.0000E+00  0.0000E+00  0.0000E+00  0.0000E+00  0.0000E+00  0.0000E+00  0.0000E+00  0.0000E+00  0.0000E+00  0.0000E+00  0.0000E+00  0.0000E+00  0.0000E+00  0.0000E+00
REACH    4        0    13  0.3629E+02  0.8697E-02  0.1024E-01  0.0000E+00  0.8697E-02  0.3726E-03  0.3726E-03  0.4211E+00  0.5171E-02  0.4855E-02  0.8434E-03  0.6862E-03  0.1985E+01  0.2337E+01  0.0000E+00  0.0000E+00  0.0000E+00  0.0000E+00  0.4764E-03  0.1683E-02  0.0000E+00  0.0000E+00  0.0000E+00  0.0000E+00  0.0000E+00  0.2655E-02  0.0000E+00  0.0000E+00  0.0000E+00  0.0000E+00  0.0000E+00  0.0000E+00  0.0000E+00  0.0000E+00  0.0000E+00  0.0000E+00  0.0000E+00  0.0000E+00  0.0000E+00  0.0000E+00  0.0000E+00  0.0000E+00  0.0000E+00
REACH    5        0    13  0.2911E+03  0.4346E-01  0.5203E-01  0.0000E+00  0.4346E-01  0.2343E-01  0.5779E-01  0.1286E+02  0.2520E-01  0.2404E-01  0.3412E-02  0.2822E-02  0.1249E+02  0.1495E+02  0.0000E+00  0.0000E+00  0.0000E+00  0.0000E+00  0.7650E-02  0.2489E-01  0.0000E+00  0.0000E+00  0.0000E+00  0.0000E+00  0.2318E-01  0.8325E-01  0.0000E+00  0.0000E+00  0.0000E+00  0.0000E+00  0.0000E+00  0.0000E+00  0.0000E+00  0.0000E+00  0.0000E+00  0.0000E+00  0.0000E+00  0.0000E+00  0.0000E+00  0.0000E+00  0.0000E+00  0.0000E+00  0.0000E+00
REACH    1        0    14  0.7646E+02  0.9811E-02  0.1058E-01  0.0000E+00  0.9811E-02  0.4134E-04  0.4134E-04  0.4523E-01  0.3296E-03  0.2898E-03  0.5309E-04  0.4120E-04  0.2495E+01  0.2690E+01  0.0000E+00  0.0000E+00  0.0000E+00  0.0000E+00  0.1195E-04  0.3865E-04  0.0000E+00  0.0000E+00  0.0000E+00  0.0000E+00  0.0000E+00  0.2742E-02  0.0000E+00  0.0000E+00  0.0000E+00  0.0000E+00  0.0000E+00  0.0000E+00  0.0000E+00  0.0000E+00  0.0000E+00  0.0000E+00  0.0000E+00  0.0000E+00  0.0000E+00  0.0000E+00  0.0000E+00  0.0000E+00  0.0000E+00
REACH    2        0    14  0.8510E+02  0.9743E-02  0.1054E-01  0.0000E+00  0.9743E-02  0.1383E-06  0.1383E-06  0.1519E-03  0.6357E-05  0.5605E-05  0.1907E-04  0.1484E-04  0.2969E+01  0.3210E+01  0.0000E+00  0.0000E+00  0.0000E+00  0.0000E+00  0.6365E-05  0.2065E-04  0.0000E+00  0.0000E+00  0.0000E+00  0.0000E+00  0.0000E+00  0.2731E-02  0.0000E+00  0.0000E+00  0.0000E+00  0.0000E+00  0.0000E+00  0.0000E+00  0.0000E+00  0.0000E+00  0.0000E+00  0.0000E+00  0.0000E+00  0.0000E+00  0.0000E+00  0.0000E+00  0.0000E+00  0.0000E+00  0.0000E+00
REACH    3        0    14  0.1958E+03  0.2328E-01  0.2658E-01  0.0000E+00  0.2328E-01  0.1931E-02  0.2031E-01  0.8844E+01  0.1730E-01  0.1611E-01  0.2676E-02  0.2199E-02  0.7186E+01  0.8204E+01  0.0000E+00  0.0000E+00  0.0000E+00  0.0000E+00  0.1354E-02  0.4637E-02  0.0000E+00  0.0000E+00  0.0000E+00  0.0000E+00  0.5473E-02  0.1875E-01  0.0000E+00  0.0000E+00  0.0000E+00  0.0000E+00  0.0000E+00  0.0000E+00  0.0000E+00  0.0000E+00  0.0000E+00  0.0000E+00  0.0000E+00  0.0000E+00  0.0000E+00  0.0000E+00  0.0000E+00  0.0000E+00  0.0000E+00
REACH    4        0    14  0.3629E+02  0.7746E-02  0.9179E-02  0.0000E+00  0.7746E-02  0.3156E-03  0.3156E-03  0.3979E+00  0.4380E-02  0.0000E+00  0.7157E-03  0.0000E+00  0.1800E+01  0.0000E+00  0.0000E+00  0.0000E+00  0.0000E+00  0.0000E+00  0.4039E-03  0.0000E+00  0.0000E+00  0.0000E+00  0.0000E+00  0.0000E+00  0.0000E+00  0.0000E+00  0.0000E+00  0.0000E+00  0.0000E+00  0.0000E+00  0.0000E+00  0.0000E+00  0.0000E+00  0.0000E+00  0.0000E+00  0.0000E+00  0.0000E+00  0.0000E+00  0.0000E+00  0.0000E+00  0.0000E+00  0.0000E+00  0.0000E+00
REACH    5        0    14  0.2911E+03  0.3927E-01  0.4625E-01  0.0000E+00  0.3927E-01  0.2068E-01  0.4642E-01  0.1162E+02  0.1614E-01  0.1550E-01  0.2214E-02  0.1877E-02  0.9103E+01  0.1072E+02  0.0000E+00  0.0000E+00  0.0000E+00  0.0000E+00  0.4653E-02  0.1644E-01  0.0000E+00  0.0000E+00  0.0000E+00  0.0000E+00  0.1875E-01  0.6623E-01  0.0000E+00  0.0000E+00  0.0000E+00  0.0000E+00  0.0000E+00  0.0000E+00  0.0000E+00  0.0000E+00  0.0000E+00  0.0000E+00  0.0000E+00  0.0000E+00  0.0000E+00  0.0000E+00  0.0000E+00  0.0000E+00  0.0000E+00
REACH    1        0    15  0.7646E+02  0.9267E-02  0.9866E-02  0.0000E+00  0.9267E-02  0.2033E-04  0.2033E-04  0.2384E-01  0.1635E-03  0.0000E+00  0.3192E-04  0.0000E+00  0.2359E+01  0.0000E+00  0.0000E+00  0.0000E+00  0.0000E+00  0.0000E+00  0.7179E-05  0.0000E+00  0.0000E+00  0.0000E+00  0.0000E+00  0.0000E+00  0.0000E+00  0.0000E+00  0.0000E+00  0.0000E+00  0.0000E+00  0.0000E+00  0.0000E+00  0.0000E+00  0.0000E+00  0.0000E+00  0.0000E+00  0.0000E+00  0.0000E+00  0.0000E+00  0.0000E+00  0.0000E+00  0.0000E+00  0.0000E+00  0.0000E+00
REACH    2        0    15  0.8510E+02  0.9175E-02  0.9809E-02  0.0000E+00  0.9175E-02  0.5222E-07  0.5222E-07  0.6162E-04  0.6357E-05  0.0000E+00  0.1907E-04  0.0000E+00  0.2802E+01  0.0000E+00  0.0000E+00  0.0000E+00  0.0000E+00  0.0000E+00  0.6365E-05  0.0000E+00  0.0000E+00  0.0000E+00  0.0000E+00  0.0000E+00  0.0000E+00  0.0000E+00  0.0000E+00  0.0000E+00  0.0000E+00  0.0000E+00  0.0000E+00  0.0000E+00  0.0000E+00  0.0000E+00  0.0000E+00  0.0000E+00  0.0000E+00  0.0000E+00  0.0000E+00  0.0000E+00  0.0000E+00  0.0000E+00  0.0000E+00
REACH    3        0    15  0.1958E+03  0.2158E-01  0.2424E-01  0.0000E+00  0.2158E-01  0.1530E-02  0.1717E-01  0.8197E+01  0.1361E-01  0.1244E-01  0.2099E-02  0.1692E-02  0.1084E+01  0.1218E+01  0.0000E+00  0.0000E+00  0.0000E+00  0.0000E+00  0.1042E-02  0.3513E-02  0.0000E+00  0.0000E+00  0.0000E+00  0.0000E+00  0.0000E+00  0.6283E-02  0.0000E+00  0.0000E+00  0.0000E+00  0.0000E+00  0.0000E+00  0.0000E+00  0.0000E+00  0.0000E+00  0.0000E+00  0.0000E+00  0.0000E+00  0.0000E+00  0.0000E+00  0.0000E+00  0.0000E+00  0.0000E+00  0.0000E+00
REACH    4        0    15  0.3629E+02  0.6924E-02  0.8211E-02  0.0000E+00  0.6924E-02  0.2673E-03  0.2673E-03  0.3767E+00  0.3709E-02  0.0000E+00  0.6076E-03  0.0000E+00  0.1639E+01  0.0000E+00  0.0000E+00  0.0000E+00  0.0000E+00  0.0000E+00  0.3425E-03  0.0000E+00  0.0000E+00  0.0000E+00  0.0000E+00  0.0000E+00  0.0000E+00  0.0000E+00  0.0000E+00  0.0000E+00  0.0000E+00  0.0000E+00  0.0000E+00  0.0000E+00  0.0000E+00  0.0000E+00  0.0000E+00  0.0000E+00  0.0000E+00  0.0000E+00  0.0000E+00  0.0000E+00  0.0000E+00  0.0000E+00  0.0000E+00
REACH    5        0    15  0.2911E+03  0.3561E-01  0.4123E-01  0.0000E+00  0.3561E-01  0.1746E-01  0.3752E-01  0.1053E+02  0.1246E-01  0.1174E-01  0.1703E-02  0.1415E-02  0.2029E+01  0.2350E+01  0.0000E+00  0.0000E+00  0.0000E+00  0.0000E+00  0.3522E-02  0.1223E-01  0.0000E+00  0.0000E+00  0.0000E+00  0.0000E+00  0.6283E-02  0.2182E-01  0.0000E+00  0.0000E+00  0.0000E+00  0.0000E+00  0.0000E+00  0.0000E+00  0.0000E+00  0.0000E+00  0.0000E+00  0.0000E+00  0.0000E+00  0.0000E+00  0.0000E+00  0.0000E+00  0.0000E+00  0.0000E+00  0.0000E+00
REACH    1        0    16  0.7646E+02  0.8772E-02  0.9252E-02  0.0000E+00  0.8772E-02  0.9996E-05  0.9996E-05  0.1251E-01  0.8173E-04  0.0000E+00  0.2170E-04  0.0000E+00  0.2236E+01  0.0000E+00  0.0000E+00  0.0000E+00  0.0000E+00  0.0000E+00  0.4832E-05  0.0000E+00  0.0000E+00  0.0000E+00  0.0000E+00  0.0000E+00  0.0000E+00  0.0000E+00  0.0000E+00  0.0000E+00  0.0000E+00  0.0000E+00  0.0000E+00  0.0000E+00  0.0000E+00  0.0000E+00  0.0000E+00  0.0000E+00  0.0000E+00  0.0000E+00  0.0000E+00  0.0000E+00  0.0000E+00  0.0000E+00  0.0000E+00
REACH    2        0    16  0.8510E+02  0.8662E-02  0.9179E-02  0.0000E+00  0.8662E-02  0.2195E-07  0.2195E-07  0.2768E-04  0.6357E-05  0.0000E+00  0.1907E-04  0.0000E+00  0.2651E+01  0.0000E+00  0.0000E+00  0.0000E+00  0.0000E+00  0.0000E+00  0.6365E-05  0.0000E+00  0.0000E+00  0.0000E+00  0.0000E+00  0.0000E+00  0.0000E+00  0.0000E+00  0.0000E+00  0.0000E+00  0.0000E+00  0.0000E+00  0.0000E+00  0.0000E+00  0.0000E+00  0.0000E+00  0.0000E+00  0.0000E+00  0.0000E+00  0.0000E+00  0.0000E+00  0.0000E+00  0.0000E+00  0.0000E+00  0.0000E+00
REACH    3        0    16  0.1958E+03  0.2012E-01  0.2228E-01  0.0000E+00  0.2012E-01  0.1216E-02  0.1471E-01  0.7641E+01  0.1089E-01  0.9826E-02  0.1682E-02  0.1339E-02  0.9192E+00  0.1018E+01  0.0000E+00  0.0000E+00  0.0000E+00  0.0000E+00  0.8395E-03  0.2789E-02  0.0000E+00  0.0000E+00  0.0000E+00  0.0000E+00  0.0000E+00  0.5774E-02  0.0000E+00  0.0000E+00  0.0000E+00  0.0000E+00  0.0000E+00  0.0000E+00  0.0000E+00  0.0000E+00  0.0000E+00  0.0000E+00  0.0000E+00  0.0000E+00  0.0000E+00  0.0000E+00  0.0000E+00  0.0000E+00  0.0000E+00
REACH    4        0    16  0.3629E+02  0.6213E-02  0.7351E-02  0.0000E+00  0.6213E-02  0.2263E-03  0.2263E-03  0.3564E+00  0.3142E-02  0.0000E+00  0.5160E-03  0.0000E+00  0.1498E+01  0.0000E+00  0.0000E+00  0.0000E+00  0.0000E+00  0.0000E+00  0.2906E-03  0.0000E+00  0.0000E+00  0.0000E+00  0.0000E+00  0.0000E+00  0.0000E+00  0.0000E+00  0.0000E+00  0.0000E+00  0.0000E+00  0.0000E+00  0.0000E+00  0.0000E+00  0.0000E+00  0.0000E+00  0.0000E+00  0.0000E+00  0.0000E+00  0.0000E+00  0.0000E+00  0.0000E+00  0.0000E+00  0.0000E+00  0.0000E+00
REACH    5        0    16  0.2911E+03  0.3248E-01  0.3702E-01  0.0000E+00  0.3248E-01  0.1495E-01  0.3074E-01  0.9610E+01  0.9838E-02  0.9136E-02  0.1350E-02  0.1106E-02  0.1756E+01  0.2001E+01  0.0000E+00  0.0000E+00  0.0000E+00  0.0000E+00  0.2795E-02  0.9556E-02  0.0000E+00  0.0000E+00  0.0000E+00  0.0000E+00  0.5774E-02  0.1974E-01  0.0000E+00  0.0000E+00  0.0000E+00  0.0000E+00  0.0000E+00  0.0000E+00  0.0000E+00  0.0000E+00  0.0000E+00  0.0000E+00  0.0000E+00  0.0000E+00  0.0000E+00  0.0000E+00  0.0000E+00  0.0000E+00  0.0000E+00
REACH    1        0    17  0.7646E+02  0.8321E-02  0.8748E-02  0.0000E+00  0.8321E-02  0.4918E-05  0.4918E-05  0.6506E-02  0.4151E-04  0.0000E+00  0.1668E-04  0.0000E+00  0.2123E+01  0.0000E+00  0.0000E+00  0.0000E+00  0.0000E+00  0.0000E+00  0.4638E-05  0.0000E+00  0.0000E+00  0.0000E+00  0.0000E+00  0.0000E+00  0.0000E+00  0.0000E+00  0.0000E+00  0.0000E+00  0.0000E+00  0.0000E+00  0.0000E+00  0.0000E+00  0.0000E+00  0.0000E+00  0.0000E+00  0.0000E+00  0.0000E+00  0.0000E+00  0.0000E+00  0.0000E+00  0.0000E+00  0.0000E+00  0.0000E+00
REACH    2        0    17  0.8510E+02  0.8197E-02  0.8658E-02  0.0000E+00  0.8197E-02  0.1130E-07  0.1130E-07  0.1511E-04  0.6357E-05  0.0000E+00  0.1907E-04  0.0000E+00  0.2513E+01  0.0000E+00  0.0000E+00  0.0000E+00  0.0000E+00  0.0000E+00  0.6365E-05  0.0000E+00  0.0000E+00  0.0000E+00  0.0000E+00  0.0000E+00  0.0000E+00  0.0000E+00  0.0000E+00  0.0000E+00  0.0000E+00  0.0000E+00  0.0000E+00  0.0000E+00  0.0000E+00  0.0000E+00  0.0000E+00  0.0000E+00  0.0000E+00  0.0000E+00  0.0000E+00  0.0000E+00  0.0000E+00  0.0000E+00  0.0000E+00
REACH    3        0    17  0.1958E+03  0.1891E-01  0.2069E-01  0.0000E+00  0.1891E-01  0.9684E-03  0.1284E-01  0.7182E+01  0.8716E-02  0.7840E-02  0.1349E-02  0.1078E-02  0.7841E+00  0.8583E+00  0.0000E+00  0.0000E+00  0.0000E+00  0.0000E+00  0.6763E-03  0.2221E-02  0.0000E+00  0.0000E+00  0.0000E+00  0.0000E+00  0.0000E+00  0.5364E-02  0.0000E+00  0.0000E+00  0.0000E+00  0.0000E+00  0.0000E+00  0.0000E+00  0.0000E+00  0.0000E+00  0.0000E+00  0.0000E+00  0.0000E+00  0.0000E+00  0.0000E+00  0.0000E+00  0.0000E+00  0.0000E+00  0.0000E+00
REACH    4        0    17  0.3629E+02  0.5597E-02  0.6600E-02  0.0000E+00  0.5597E-02  0.1917E-03  0.1917E-03  0.3362E+00  0.2661E-02  0.0000E+00  0.4385E-03  0.0000E+00  0.1374E+01  0.0000E+00  0.0000E+00  0.0000E+00  0.0000E+00  0.0000E+00  0.2466E-03  0.0000E+00  0.0000E+00  0.0000E+00  0.0000E+00  0.0000E+00  0.0000E+00  0.0000E+00  0.0000E+00  0.0000E+00  0.0000E+00  0.0000E+00  0.0000E+00  0.0000E+00  0.0000E+00  0.0000E+00  0.0000E+00  0.0000E+00  0.0000E+00  0.0000E+00  0.0000E+00  0.0000E+00  0.0000E+00  0.0000E+00  0.0000E+00
REACH    5        0    17  0.2911E+03  0.2989E-01  0.3364E-01  0.0000E+00  0.2989E-01  0.1304E-01  0.2571E-01  0.8843E+01  0.7847E-02  0.7257E-02  0.1088E-02  0.8940E-03  0.1533E+01  0.1725E+01  0.0000E+00  0.0000E+00  0.0000E+00  0.0000E+00  0.2225E-02  0.7511E-02  0.0000E+00  0.0000E+00  0.0000E+00  0.0000E+00  0.5364E-02  0.1811E-01  0.0000E+00  0.0000E+00  0.0000E+00  0.0000E+00  0.0000E+00  0.0000E+00  0.0000E+00  0.0000E+00  0.0000E+00  0.0000E+00  0.0000E+00  0.0000E+00  0.0000E+00  0.0000E+00  0.0000E+00  0.0000E+00  0.0000E+00
REACH    1        0    18  0.7646E+02  0.7906E-02  0.8272E-02  0.0000E+00  0.7906E-02  0.2421E-05  0.2421E-05  0.3387E-02  0.2172E-04  0.0000E+00  0.1421E-04  0.0000E+00  0.2020E+01  0.0000E+00  0.0000E+00  0.0000E+00  0.0000E+00  0.0000E+00  0.4638E-05  0.0000E+00  0.0000E+00  0.0000E+00  0.0000E+00  0.0000E+00  0.0000E+00  0.0000E+00  0.0000E+00  0.0000E+00  0.0000E+00  0.0000E+00  0.0000E+00  0.0000E+00  0.0000E+00  0.0000E+00  0.0000E+00  0.0000E+00  0.0000E+00  0.0000E+00  0.0000E+00  0.0000E+00  0.0000E+00  0.0000E+00  0.0000E+00
REACH    2        0    18  0.8510E+02  0.7772E-02  0.8168E-02  0.0000E+00  0.7772E-02  0.7553E-08  0.7553E-08  0.1070E-04  0.6357E-05  0.0000E+00  0.1907E-04  0.0000E+00  0.2386E+01  0.0000E+00  0.0000E+00  0.0000E+00  0.0000E+00  0.0000E+00  0.6365E-05  0.0000E+00  0.0000E+00  0.0000E+00  0.0000E+00  0.0000E+00  0.0000E+00  0.0000E+00  0.0000E+00  0.0000E+00  0.0000E+00  0.0000E+00  0.0000E+00  0.0000E+00  0.0000E+00  0.0000E+00  0.0000E+00  0.0000E+00  0.0000E+00  0.0000E+00  0.0000E+00  0.0000E+00  0.0000E+00  0.0000E+00  0.0000E+00
REACH    3        0    18  0.1958E+03  0.1778E-01  0.1929E-01  0.0000E+00  0.1778E-01  0.7724E-03  0.1126E-01  0.6755E+01  0.6977E-02  0.6187E-02  0.1082E-02  0.8488E-03  0.6730E+00  0.7300E+00  0.0000E+00  0.0000E+00  0.0000E+00  0.0000E+00  0.5451E-03  0.1773E-02  0.0000E+00  0.0000E+00  0.0000E+00  0.0000E+00  0.0000E+00  0.4999E-02  0.0000E+00  0.0000E+00  0.0000E+00  0.0000E+00  0.0000E+00  0.0000E+00  0.0000E+00  0.0000E+00  0.0000E+00  0.0000E+00  0.0000E+00  0.0000E+00  0.0000E+00  0.0000E+00  0.0000E+00  0.0000E+00  0.0000E+00
REACH    4        0    18  0.3629E+02  0.5061E-02  0.5937E-02  0.0000E+00  0.5061E-02  0.1623E-03  0.1623E-03  0.3165E+00  0.2254E-02  0.0000E+00  0.3728E-03  0.0000E+00  0.1265E+01  0.0000E+00  0.0000E+00  0.0000E+00  0.0000E+00  0.0000E+00  0.2093E-03  0.0000E+00  0.0000E+00  0.0000E+00  0.0000E+00  0.0000E+00  0.0000E+00  0.0000E+00  0.0000E+00  0.0000E+00  0.0000E+00  0.0000E+00  0.0000E+00  0.0000E+00  0.0000E+00  0.0000E+00  0.0000E+00  0.0000E+00  0.0000E+00  0.0000E+00  0.0000E+00  0.0000E+00  0.0000E+00  0.0000E+00  0.0000E+00
REACH    5        0    18  0.2911E+03  0.2760E-01  0.3069E-01  0.0000E+00  0.2760E-01  0.1142E-01  0.2165E-01  0.8166E+01  0.6192E-02  0.5628E-02  0.8596E-03  0.6911E-03  0.1350E+01  0.1501E+01  0.0000E+00  0.0000E+00  0.0000E+00  0.0000E+00  0.1777E-02  0.5926E-02  0.0000E+00  0.0000E+00  0.0000E+00  0.0000E+00  0.4999E-02  0.1667E-01  0.0000E+00  0.0000E+00  0.0000E+00  0.0000E+00  0.0000E+00  0.0000E+00  0.0000E+00  0.0000E+00  0.0000E+00  0.0000E+00  0.0000E+00  0.0000E+00  0.0000E+00  0.0000E+00  0.0000E+00  0.0000E+00  0.0000E+00
REACH    1        0    19  0.7646E+02  0.7522E-02  0.7760E-02  0.0000E+00  0.7522E-02  0.1193E-05  0.1193E-05  0.1779E-02  0.1198E-04  0.0000E+00  0.1389E-04  0.0000E+00  0.1923E+01  0.0000E+00  0.0000E+00  0.0000E+00  0.0000E+00  0.0000E+00  0.4638E-05  0.0000E+00  0.0000E+00  0.0000E+00  0.0000E+00  0.0000E+00  0.0000E+00  0.0000E+00  0.0000E+00  0.0000E+00  0.0000E+00  0.0000E+00  0.0000E+00  0.0000E+00  0.0000E+00  0.0000E+00  0.0000E+00  0.0000E+00  0.0000E+00  0.0000E+00  0.0000E+00  0.0000E+00  0.0000E+00  0.0000E+00  0.0000E+00
REACH    2        0    19  0.8510E+02  0.7382E-02  0.7649E-02  0.0000E+00  0.7382E-02  0.6235E-08  0.6235E-08  0.9434E-05  0.6357E-05  0.0000E+00  0.1907E-04  0.0000E+00  0.2269E+01  0.0000E+00  0.0000E+00  0.0000E+00  0.0000E+00  0.0000E+00  0.6365E-05  0.0000E+00  0.0000E+00  0.0000E+00  0.0000E+00  0.0000E+00  0.0000E+00  0.0000E+00  0.0000E+00  0.0000E+00  0.0000E+00  0.0000E+00  0.0000E+00  0.0000E+00  0.0000E+00  0.0000E+00  0.0000E+00  0.0000E+00  0.0000E+00  0.0000E+00  0.0000E+00  0.0000E+00  0.0000E+00  0.0000E+00  0.0000E+00
REACH    3        0    19  0.1958E+03  0.1662E-01  0.1787E-01  0.0000E+00  0.1662E-01  0.6166E-03  0.9746E-02  0.6313E+01  0.5586E-02  0.4834E-02  0.8684E-03  0.6564E-03  0.5815E+00  0.6252E+00  0.0000E+00  0.0000E+00  0.0000E+00  0.0000E+00  0.4395E-03  0.1417E-02  0.0000E+00  0.0000E+00  0.0000E+00  0.0000E+00  0.0000E+00  0.4632E-02  0.0000E+00  0.0000E+00  0.0000E+00  0.0000E+00  0.0000E+00  0.0000E+00  0.0000E+00  0.0000E+00  0.0000E+00  0.0000E+00  0.0000E+00  0.0000E+00  0.0000E+00  0.0000E+00  0.0000E+00  0.0000E+00  0.0000E+00
REACH    4        0    19  0.3629E+02  0.4594E-02  0.5343E-02  0.0000E+00  0.4594E-02  0.1375E-03  0.1375E-03  0.2978E+00  0.1910E-02  0.0000E+00  0.3172E-03  0.0000E+00  0.1169E+01  0.0000E+00  0.0000E+00  0.0000E+00  0.0000E+00  0.0000E+00  0.1778E-03  0.0000E+00  0.0000E+00  0.0000E+00  0.0000E+00  0.0000E+00  0.0000E+00  0.0000E+00  0.0000E+00  0.0000E+00  0.0000E+00  0.0000E+00  0.0000E+00  0.0000E+00  0.0000E+00  0.0000E+00  0.0000E+00  0.0000E+00  0.0000E+00  0.0000E+00  0.0000E+00  0.0000E+00  0.0000E+00  0.0000E+00  0.0000E+00
REACH    5        0    19  0.2911E+03  0.2540E-01  0.2778E-01  0.0000E+00  0.2540E-01  0.9886E-02  0.1804E-01  0.7515E+01  0.4838E-02  0.4258E-02  0.6673E-03  0.5131E-03  0.1198E+01  0.1311E+01  0.0000E+00  0.0000E+00  0.0000E+00  0.0000E+00  0.1421E-02  0.4662E-02  0.0000E+00  0.0000E+00  0.0000E+00  0.0000E+00  0.4632E-02  0.1520E-01  0.0000E+00  0.0000E+00  0.0000E+00  0.0000E+00  0.0000E+00  0.0000E+00  0.0000E+00  0.0000E+00  0.0000E+00  0.0000E+00  0.0000E+00  0.0000E+00  0.0000E+00  0.0000E+00  0.0000E+00  0.0000E+00  0.0000E+00
REACH    1        0    20  0.7646E+02  0.7166E-02  0.7281E-02  0.0000E+00  0.7166E-02  0.5888E-06  0.5888E-06  0.9360E-03  0.7191E-05  0.0000E+00  0.1389E-04  0.0000E+00  0.1834E+01  0.0000E+00  0.0000E+00  0.0000E+00  0.0000E+00  0.0000E+00  0.4638E-05  0.0000E+00  0.0000E+00  0.0000E+00  0.0000E+00  0.0000E+00  0.0000E+00  0.0000E+00  0.0000E+00  0.0000E+00  0.0000E+00  0.0000E+00  0.0000E+00  0.0000E+00  0.0000E+00  0.0000E+00  0.0000E+00  0.0000E+00  0.0000E+00  0.0000E+00  0.0000E+00  0.0000E+00  0.0000E+00  0.0000E+00  0.0000E+00
REACH    2        0    20  0.8510E+02  0.7022E-02  0.7164E-02  0.0000E+00  0.7022E-02  0.6167E-08  0.6167E-08  0.9962E-05  0.6357E-05  0.0000E+00  0.1907E-04  0.0000E+00  0.2161E+01  0.0000E+00  0.0000E+00  0.0000E+00  0.0000E+00  0.0000E+00  0.6365E-05  0.0000E+00  0.0000E+00  0.0000E+00  0.0000E+00  0.0000E+00  0.0000E+00  0.0000E+00  0.0000E+00  0.0000E+00  0.0000E+00  0.0000E+00  0.0000E+00  0.0000E+00  0.0000E+00  0.0000E+00  0.0000E+00  0.0000E+00  0.0000E+00  0.0000E+00  0.0000E+00  0.0000E+00  0.0000E+00  0.0000E+00  0.0000E+00
REACH    3        0    20  0.1958E+03  0.1554E-01  0.1654E-01  0.0000E+00  0.1554E-01  0.4925E-03  0.8438E-02  0.5904E+01  0.4473E-02  0.3616E-02  0.6974E-03  0.4684E-03  0.5057E+00  0.5382E+00  0.0000E+00  0.0000E+00  0.0000E+00  0.0000E+00  0.3545E-03  0.1132E-02  0.0000E+00  0.0000E+00  0.0000E+00  0.0000E+00  0.0000E+00  0.4288E-02  0.0000E+00  0.0000E+00  0.0000E+00  0.0000E+00  0.0000E+00  0.0000E+00  0.0000E+00  0.0000E+00  0.0000E+00  0.0000E+00  0.0000E+00  0.0000E+00  0.0000E+00  0.0000E+00  0.0000E+00  0.0000E+00  0.0000E+00
REACH    4        0    20  0.3629E+02  0.4186E-02  0.4822E-02  0.0000E+00  0.4186E-02  0.1164E-03  0.1164E-03  0.2795E+00  0.1618E-02  0.0000E+00  0.2701E-03  0.0000E+00  0.1083E+01  0.0000E+00  0.0000E+00  0.0000E+00  0.0000E+00  0.0000E+00  0.1510E-03  0.0000E+00  0.0000E+00  0.0000E+00  0.0000E+00  0.0000E+00  0.0000E+00  0.0000E+00  0.0000E+00  0.0000E+00  0.0000E+00  0.0000E+00  0.0000E+00  0.0000E+00  0.0000E+00  0.0000E+00  0.0000E+00  0.0000E+00  0.0000E+00  0.0000E+00  0.0000E+00  0.0000E+00  0.0000E+00  0.0000E+00  0.0000E+00
REACH    5        0    20  0.2911E+03  0.2339E-01  0.2513E-01  0.0000E+00  0.2339E-01  0.8556E-02  0.1502E-01  0.6919E+01  0.3619E-02  0.2954E-02  0.4792E-03  0.3249E-03  0.1070E+01  0.1150E+01  0.0000E+00  0.0000E+00  0.0000E+00  0.0000E+00  0.1135E-02  0.3660E-02  0.0000E+00  0.0000E+00  0.0000E+00  0.0000E+00  0.4288E-02  0.1382E-01  0.0000E+00  0.0000E+00  0.0000E+00  0.0000E+00  0.0000E+00  0.0000E+00  0.0000E+00  0.0000E+00  0.0000E+00  0.0000E+00  0.0000E+00  0.0000E+00  0.0000E+00  0.0000E+00  0.0000E+00  0.0000E+00  0.0000E+00
REACH    1        0    21  0.7646E+02  0.6834E-02  0.6937E-02  0.0000E+00  0.6834E-02  0.2920E-06  0.2920E-06  0.4871E-03  0.4835E-05  0.0000E+00  0.1389E-04  0.0000E+00  0.1750E+01  0.0000E+00  0.0000E+00  0.0000E+00  0.0000E+00  0.0000E+00  0.4638E-05  0.0000E+00  0.0000E+00  0.0000E+00  0.0000E+00  0.0000E+00  0.0000E+00  0.0000E+00  0.0000E+00  0.0000E+00  0.0000E+00  0.0000E+00  0.0000E+00  0.0000E+00  0.0000E+00  0.0000E+00  0.0000E+00  0.0000E+00  0.0000E+00  0.0000E+00  0.0000E+00  0.0000E+00  0.0000E+00  0.0000E+00  0.0000E+00
REACH    2        0    21  0.8510E+02  0.6688E-02  0.6814E-02  0.0000E+00  0.6688E-02  0.6167E-08  0.6167E-08  0.1048E-04  0.6357E-05  0.0000E+00  0.1907E-04  0.0000E+00  0.2060E+01  0.0000E+00  0.0000E+00  0.0000E+00  0.0000E+00  0.0000E+00  0.6365E-05  0.0000E+00  0.0000E+00  0.0000E+00  0.0000E+00  0.0000E+00  0.0000E+00  0.0000E+00  0.0000E+00  0.0000E+00  0.0000E+00  0.0000E+00  0.0000E+00  0.0000E+00  0.0000E+00  0.0000E+00  0.0000E+00  0.0000E+00  0.0000E+00  0.0000E+00  0.0000E+00  0.0000E+00  0.0000E+00  0.0000E+00  0.0000E+00
REACH    3        0    21  0.1958E+03  0.1475E-01  0.1555E-01  0.0000E+00  0.1475E-01  0.3936E-03  0.7530E-02  0.5604E+01  0.3583E-02  0.2984E-02  0.5605E-03  0.4014E-03  0.4428E+00  0.4669E+00  0.0000E+00  0.0000E+00  0.0000E+00  0.0000E+00  0.2861E-03  0.9049E-03  0.0000E+00  0.0000E+00  0.0000E+00  0.0000E+00  0.0000E+00  0.4031E-02  0.0000E+00  0.0000E+00  0.0000E+00  0.0000E+00  0.0000E+00  0.0000E+00  0.0000E+00  0.0000E+00  0.0000E+00  0.0000E+00  0.0000E+00  0.0000E+00  0.0000E+00  0.0000E+00  0.0000E+00  0.0000E+00  0.0000E+00
REACH    4        0    21  0.3629E+02  0.3828E-02  0.4381E-02  0.0000E+00  0.3828E-02  0.9860E-04  0.9860E-04  0.2605E+00  0.1370E-02  0.0000E+00  0.2302E-03  0.0000E+00  0.1007E+01  0.0000E+00  0.0000E+00  0.0000E+00  0.0000E+00  0.0000E+00  0.1284E-03  0.0000E+00  0.0000E+00  0.0000E+00  0.0000E+00  0.0000E+00  0.0000E+00  0.0000E+00  0.0000E+00  0.0000E+00  0.0000E+00  0.0000E+00  0.0000E+00  0.0000E+00  0.0000E+00  0.0000E+00  0.0000E+00  0.0000E+00  0.0000E+00  0.0000E+00  0.0000E+00  0.0000E+00  0.0000E+00  0.0000E+00  0.0000E+00
REACH    5        0    21  0.2911E+03  0.2182E-01  0.2319E-01  0.0000E+00  0.2182E-01  0.7629E-02  0.1293E-01  0.6453E+01  0.2987E-02  0.2509E-02  0.4123E-03  0.2977E-03  0.9624E+00  0.1023E+01  0.0000E+00  0.0000E+00  0.0000E+00  0.0000E+00  0.9085E-03  0.2898E-02  0.0000E+00  0.0000E+00  0.0000E+00  0.0000E+00  0.4031E-02  0.1286E-01  0.0000E+00  0.0000E+00  0.0000E+00  0.0000E+00  0.0000E+00  0.0000E+00  0.0000E+00  0.0000E+00  0.0000E+00  0.0000E+00  0.0000E+00  0.0000E+00  0.0000E+00  0.0000E+00  0.0000E+00  0.0000E+00  0.0000E+00
REACH    1        0    22  0.7646E+02  0.6523E-02  0.6619E-02  0.0000E+00  0.6523E-02  0.1459E-06  0.1459E-06  0.2551E-03  0.4631E-05  0.0000E+00  0.1389E-04  0.0000E+00  0.1671E+01  0.0000E+00  0.0000E+00  0.0000E+00  0.0000E+00  0.0000E+00  0.4638E-05  0.0000E+00  0.0000E+00  0.0000E+00  0.0000E+00  0.0000E+00  0.0000E+00  0.0000E+00  0.0000E+00  0.0000E+00  0.0000E+00  0.0000E+00  0.0000E+00  0.0000E+00  0.0000E+00  0.0000E+00  0.0000E+00  0.0000E+00  0.0000E+00  0.0000E+00  0.0000E+00  0.0000E+00  0.0000E+00  0.0000E+00  0.0000E+00
REACH    2        0    22  0.8510E+02  0.6376E-02  0.6492E-02  0.0000E+00  0.6376E-02  0.6167E-08  0.6167E-08  0.1099E-04  0.6357E-05  0.0000E+00  0.1907E-04  0.0000E+00  0.1965E+01  0.0000E+00  0.0000E+00  0.0000E+00  0.0000E+00  0.0000E+00  0.6365E-05  0.0000E+00  0.0000E+00  0.0000E+00  0.0000E+00  0.0000E+00  0.0000E+00  0.0000E+00  0.0000E+00  0.0000E+00  0.0000E+00  0.0000E+00  0.0000E+00  0.0000E+00  0.0000E+00  0.0000E+00  0.0000E+00  0.0000E+00  0.0000E+00  0.0000E+00  0.0000E+00  0.0000E+00  0.0000E+00  0.0000E+00  0.0000E+00
REACH    3        0    22  0.1958E+03  0.1403E-01  0.1469E-01  0.0000E+00  0.1403E-01  0.3146E-03  0.6765E-02  0.5329E+01  0.2870E-02  0.2358E-02  0.4509E-03  0.3166E-03  0.3904E+00  0.4090E+00  0.0000E+00  0.0000E+00  0.0000E+00  0.0000E+00  0.2311E-03  0.7260E-03  0.0000E+00  0.0000E+00  0.0000E+00  0.0000E+00  0.0000E+00  0.3809E-02  0.0000E+00  0.0000E+00  0.0000E+00  0.0000E+00  0.0000E+00  0.0000E+00  0.0000E+00  0.0000E+00  0.0000E+00  0.0000E+00  0.0000E+00  0.0000E+00  0.0000E+00  0.0000E+00  0.0000E+00  0.0000E+00  0.0000E+00
REACH    4        0    22  0.3629E+02  0.3514E-02  0.3995E-02  0.0000E+00  0.3514E-02  0.8351E-04  0.8351E-04  0.2419E+00  0.1161E-02  0.0000E+00  0.1964E-03  0.0000E+00  0.9388E+00  0.0000E+00  0.0000E+00  0.0000E+00  0.0000E+00  0.0000E+00  0.1092E-03  0.0000E+00  0.0000E+00  0.0000E+00  0.0000E+00  0.0000E+00  0.0000E+00  0.0000E+00  0.0000E+00  0.0000E+00  0.0000E+00  0.0000E+00  0.0000E+00  0.0000E+00  0.0000E+00  0.0000E+00  0.0000E+00  0.0000E+00  0.0000E+00  0.0000E+00  0.0000E+00  0.0000E+00  0.0000E+00  0.0000E+00  0.0000E+00
REACH    5        0    22  0.2911E+03  0.2044E-01  0.2154E-01  0.0000E+00  0.2044E-01  0.6849E-02  0.1125E-01  0.6048E+01  0.2361E-02  0.1951E-02  0.3274E-03  0.2313E-03  0.8723E+00  0.9189E+00  0.0000E+00  0.0000E+00  0.0000E+00  0.0000E+00  0.7296E-03  0.2306E-02  0.0000E+00  0.0000E+00  0.0000E+00  0.0000E+00  0.3809E-02  0.1204E-01  0.0000E+00  0.0000E+00  0.0000E+00  0.0000E+00  0.0000E+00  0.0000E+00  0.0000E+00  0.0000E+00  0.0000E+00  0.0000E+00  0.0000E+00  0.0000E+00  0.0000E+00  0.0000E+00  0.0000E+00  0.0000E+00  0.0000E+00
REACH    1        0    23  0.7646E+02  0.6231E-02  0.6233E-02  0.0000E+00  0.6231E-02  0.7403E-07  0.7403E-07  0.1375E-03  0.4631E-05  0.0000E+00  0.1389E-04  0.0000E+00  0.1597E+01  0.0000E+00  0.0000E+00  0.0000E+00  0.0000E+00  0.0000E+00  0.4638E-05  0.0000E+00  0.0000E+00  0.0000E+00  0.0000E+00  0.0000E+00  0.0000E+00  0.0000E+00  0.0000E+00  0.0000E+00  0.0000E+00  0.0000E+00  0.0000E+00  0.0000E+00  0.0000E+00  0.0000E+00  0.0000E+00  0.0000E+00  0.0000E+00  0.0000E+00  0.0000E+00  0.0000E+00  0.0000E+00  0.0000E+00  0.0000E+00
REACH    2        0    23  0.8510E+02  0.6085E-02  0.6106E-02  0.0000E+00  0.6085E-02  0.6167E-08  0.6167E-08  0.1169E-04  0.6357E-05  0.0000E+00  0.1907E-04  0.0000E+00  0.1877E+01  0.0000E+00  0.0000E+00  0.0000E+00  0.0000E+00  0.0000E+00  0.6365E-05  0.0000E+00  0.0000E+00  0.0000E+00  0.0000E+00  0.0000E+00  0.0000E+00  0.0000E+00  0.0000E+00  0.0000E+00  0.0000E+00  0.0000E+00  0.0000E+00  0.0000E+00  0.0000E+00  0.0000E+00  0.0000E+00  0.0000E+00  0.0000E+00  0.0000E+00  0.0000E+00  0.0000E+00  0.0000E+00  0.0000E+00  0.0000E+00
REACH    3        0    23  0.1958E+03  0.1318E-01  0.1372E-01  0.0000E+00  0.1318E-01  0.2515E-03  0.5936E-02  0.5008E+01  0.2300E-02  0.1872E-02  0.3631E-03  0.2521E-03  0.3466E+00  0.3606E+00  0.0000E+00  0.0000E+00  0.0000E+00  0.0000E+00  0.1867E-03  0.5829E-03  0.0000E+00  0.0000E+00  0.0000E+00  0.0000E+00  0.0000E+00  0.3556E-02  0.0000E+00  0.0000E+00  0.0000E+00  0.0000E+00  0.0000E+00  0.0000E+00  0.0000E+00  0.0000E+00  0.0000E+00  0.0000E+00  0.0000E+00  0.0000E+00  0.0000E+00  0.0000E+00  0.0000E+00  0.0000E+00  0.0000E+00
REACH    4        0    23  0.3629E+02  0.3237E-02  0.3641E-02  0.0000E+00  0.3237E-02  0.7072E-04  0.7072E-04  0.2248E+00  0.9838E-03  0.0000E+00  0.1678E-03  0.0000E+00  0.8778E+00  0.0000E+00  0.0000E+00  0.0000E+00  0.0000E+00  0.0000E+00  0.9299E-04  0.0000E+00  0.0000E+00  0.0000E+00  0.0000E+00  0.0000E+00  0.0000E+00  0.0000E+00  0.0000E+00  0.0000E+00  0.0000E+00  0.0000E+00  0.0000E+00  0.0000E+00  0.0000E+00  0.0000E+00  0.0000E+00  0.0000E+00  0.0000E+00  0.0000E+00  0.0000E+00  0.0000E+00  0.0000E+00  0.0000E+00  0.0000E+00
REACH    5        0    23  0.2911E+03  0.1900E-01  0.1969E-01  0.0000E+00  0.1900E-01  0.6007E-02  0.9562E-02  0.5621E+01  0.1876E-02  0.1520E-02  0.2629E-03  0.1818E-03  0.7952E+00  0.8240E+00  0.0000E+00  0.0000E+00  0.0000E+00  0.0000E+00  0.5865E-03  0.1823E-02  0.0000E+00  0.0000E+00  0.0000E+00  0.0000E+00  0.3556E-02  0.1105E-01  0.0000E+00  0.0000E+00  0.0000E+00  0.0000E+00  0.0000E+00  0.0000E+00  0.0000E+00  0.0000E+00  0.0000E+00  0.0000E+00  0.0000E+00  0.0000E+00  0.0000E+00  0.0000E+00  0.0000E+00  0.0000E+00  0.0000E+00
REACH    1        0    24  0.7646E+02  0.3294E+00  0.2566E+00  0.1471E-02  0.9330E-01  0.1138E+02  0.1053E+02  0.4753E+03  0.2905E+02  0.4031E+02  0.4166E+01  0.6433E+01  0.8213E+03  0.6095E+03  0.0000E+00  0.0000E+00  0.0000E+00  0.0000E+00  0.9386E+00  0.0000E+00  0.8507E+02  0.0000E+00  0.3945E+04  0.0000E+00  0.2927E+03  0.0000E+00  0.0000E+00  0.0000E+00  0.0000E+00  0.0000E+00  0.0000E+00  0.0000E+00  0.0000E+00  0.0000E+00  0.0000E+00  0.0000E+00  0.0000E+00  0.0000E+00  0.0000E+00  0.0000E+00  0.0000E+00  0.0000E+00  0.0000E+00
REACH    2        0    24  0.8510E+02  0.5812E-02  0.5815E-02  0.0000E+00  0.5812E-02  0.6167E-08  0.6167E-08  0.1228E-04  0.6357E-05  0.0000E+00  0.1907E-04  0.0000E+00  0.1794E+01  0.0000E+00  0.0000E+00  0.0000E+00  0.0000E+00  0.0000E+00  0.6365E-05  0.0000E+00  0.0000E+00  0.0000E+00  0.0000E+00  0.0000E+00  0.0000E+00  0.0000E+00  0.0000E+00  0.0000E+00  0.0000E+00  0.0000E+00  0.0000E+00  0.0000E+00  0.0000E+00  0.0000E+00  0.0000E+00  0.0000E+00  0.0000E+00  0.0000E+00  0.0000E+00  0.0000E+00  0.0000E+00  0.0000E+00  0.0000E+00
REACH    3        0    24  0.1958E+03  0.2631E+00  0.1749E+00  0.2783E-02  0.1489E+00  0.1053E+02  0.7274E+01  0.4814E+03  0.4031E+02  0.2181E+02  0.6433E+01  0.3069E+01  0.6098E+03  0.4052E+03  0.0000E+00  0.0000E+00  0.0000E+00  0.0000E+00  0.1510E-03  0.3012E-03  0.0000E+00  0.0000E+00  0.0000E+00  0.0000E+00  0.0000E+00  0.4533E-01  0.0000E+00  0.0000E+00  0.0000E+00  0.0000E+00  0.0000E+00  0.0000E+00  0.0000E+00  0.0000E+00  0.0000E+00  0.0000E+00  0.0000E+00  0.0000E+00  0.0000E+00  0.0000E+00  0.0000E+00  0.0000E+00  0.0000E+00
REACH    4        0    24  0.3629E+02  0.2992E-02  0.3341E-02  0.0000E+00  0.2992E-02  0.5989E-04  0.5989E-04  0.2075E+00  0.8337E-03  0.0000E+00  0.1436E-03  0.0000E+00  0.8229E+00  0.0000E+00  0.0000E+00  0.0000E+00  0.0000E+00  0.0000E+00  0.7924E-04  0.0000E+00  0.0000E+00  0.0000E+00  0.0000E+00  0.0000E+00  0.0000E+00  0.0000E+00  0.0000E+00  0.0000E+00  0.0000E+00  0.0000E+00  0.0000E+00  0.0000E+00  0.0000E+00  0.0000E+00  0.0000E+00  0.0000E+00  0.0000E+00  0.0000E+00  0.0000E+00  0.0000E+00  0.0000E+00  0.0000E+00  0.0000E+00
REACH    5        0    24  0.2911E+03  0.1798E+00  0.8587E-01  0.0000E+00  0.1798E+00  0.7275E+01  0.2930E+01  0.3950E+03  0.2181E+02  0.8484E+01  0.3069E+01  0.1053E+01  0.4056E+03  0.1938E+03  0.0000E+00  0.0000E+00  0.0000E+00  0.0000E+00  0.3048E-03  0.4367E-03  0.0000E+00  0.0000E+00  0.0000E+00  0.0000E+00  0.4533E-01  0.6496E-01  0.0000E+00  0.0000E+00  0.0000E+00  0.0000E+00  0.0000E+00  0.0000E+00  0.0000E+00  0.0000E+00  0.0000E+00  0.0000E+00  0.0000E+00  0.0000E+00  0.0000E+00  0.0000E+00  0.0000E+00  0.0000E+00  0.0000E+00
REACH    1        0    25  0.7646E+02  0.9985E+00  0.9868E+00  0.1666E-02  0.9444E-01  0.2785E+02  0.2785E+02  0.3266E+03  0.5147E+02  0.7328E+02  0.7842E+01  0.1151E+02  0.1252E+04  0.1219E+04  0.0000E+00  0.0000E+00  0.0000E+00  0.0000E+00  0.2772E+01  0.0000E+00  0.1023E+03  0.0000E+00  0.6042E+04  0.0000E+00  0.9636E+03  0.0000E+00  0.0000E+00  0.0000E+00  0.0000E+00  0.0000E+00  0.0000E+00  0.0000E+00  0.0000E+00  0.0000E+00  0.0000E+00  0.0000E+00  0.0000E+00  0.0000E+00  0.0000E+00  0.0000E+00  0.0000E+00  0.0000E+00  0.0000E+00
REACH    2        0    25  0.8510E+02  0.3317E+01  0.2996E+01  0.1638E-02  0.9305E-01  0.4500E+03  0.4130E+03  0.1596E+04  0.3685E+03  0.3120E+03  0.6709E+02  0.5177E+02  0.2678E+04  0.2373E+04  0.0000E+00  0.0000E+00  0.0000E+00  0.0000E+00  0.8324E+01  0.1192E+02  0.1314E+03  0.0000E+00  0.4355E+05  0.0000E+00  0.3149E+04  0.0000E+00  0.0000E+00  0.0000E+00  0.0000E+00  0.0000E+00  0.0000E+00  0.0000E+00  0.0000E+00  0.0000E+00  0.0000E+00  0.0000E+00  0.0000E+00  0.0000E+00  0.0000E+00  0.0000E+00  0.0000E+00  0.0000E+00  0.0000E+00
REACH    3        0    25  0.1958E+03  0.4577E+01  0.4217E+01  0.2659E-02  0.1524E+00  0.5438E+03  0.4321E+03  0.1186E+04  0.4349E+03  0.3812E+03  0.7388E+02  0.5973E+02  0.4887E+04  0.4443E+04  0.0000E+00  0.0000E+00  0.0000E+00  0.0000E+00  0.1350E+02  0.1444E+02  0.1756E+03  0.0000E+00  0.6159E+04  0.0000E+00  0.5658E+03  0.1562E+04  0.0000E+00  0.0000E+00  0.0000E+00  0.0000E+00  0.0000E+00  0.0000E+00  0.0000E+00  0.0000E+00  0.0000E+00  0.0000E+00  0.0000E+00  0.0000E+00  0.0000E+00  0.0000E+00  0.0000E+00  0.0000E+00  0.0000E+00
REACH    4        0    25  0.3629E+02  0.5129E+00  0.4911E+00  0.2713E-03  0.1552E-01  0.2560E+02  0.2487E+02  0.5861E+03  0.4566E+02  0.8620E+02  0.7537E+01  0.1473E+02  0.1054E+04  0.9401E+03  0.0000E+00  0.0000E+00  0.0000E+00  0.0000E+00  0.1435E+01  0.0000E+00  0.1765E+03  0.0000E+00  0.5112E+04  0.0000E+00  0.4767E+03  0.0000E+00  0.0000E+00  0.0000E+00  0.0000E+00  0.0000E+00  0.0000E+00  0.0000E+00  0.0000E+00  0.0000E+00  0.0000E+00  0.0000E+00  0.0000E+00  0.0000E+00  0.0000E+00  0.0000E+00  0.0000E+00  0.0000E+00  0.0000E+00
REACH    5        0    25  0.2911E+03  0.5411E+01  0.4621E+01  0.6119E-02  0.3513E+00  0.4603E+03  0.3037E+03  0.7607E+03  0.4739E+03  0.3515E+03  0.7559E+02  0.5094E+02  0.6554E+04  0.5576E+04  0.0000E+00  0.0000E+00  0.0000E+00  0.0000E+00  0.1628E+02  0.2386E+02  0.5881E+02  0.0000E+00  0.2496E+03  0.0000E+00  0.2259E+04  0.5788E+04  0.0000E+00  0.0000E+00  0.0000E+00  0.0000E+00  0.0000E+00  0.0000E+00  0.0000E+00  0.0000E+00  0.0000E+00  0.0000E+00  0.0000E+00  0.0000E+00  0.0000E+00  0.0000E+00  0.0000E+00  0.0000E+00  0.0000E+00
REACH    1        0    26  0.7646E+02  0.9217E+01  0.8403E+01  0.8285E-03  0.1004E+00  0.5178E+03  0.4733E+03  0.6518E+03  0.8635E+03  0.6806E+03  0.1279E+03  0.9160E+02  0.1553E+04  0.1381E+04  0.0000E+00  0.0000E+00  0.0000E+00  0.0000E+00  0.2242E+02  0.4003E+02  0.1077E+03  0.0000E+00  0.1180E+06  0.0000E+00  0.8499E+04  0.0000E+00  0.0000E+00  0.0000E+00  0.0000E+00  0.0000E+00  0.0000E+00  0.0000E+00  0.0000E+00  0.0000E+00  0.0000E+00  0.0000E+00  0.0000E+00  0.0000E+00  0.0000E+00  0.0000E+00  0.0000E+00  0.0000E+00  0.0000E+00
REACH    2        0    26  0.8510E+02  0.1149E+02  0.1108E+02  0.7992E-03  0.9691E-01  0.1612E+04  0.1524E+04  0.1592E+04  0.1554E+04  0.1272E+04  0.2700E+03  0.1982E+03  0.2805E+04  0.2798E+04  0.0000E+00  0.0000E+00  0.0000E+00  0.0000E+00  0.2873E+02  0.7726E+02  0.1367E+03  0.0000E+00  0.2049E+06  0.0000E+00  0.1069E+05  0.0000E+00  0.0000E+00  0.0000E+00  0.0000E+00  0.0000E+00  0.0000E+00  0.0000E+00  0.0000E+00  0.0000E+00  0.0000E+00  0.0000E+00  0.0000E+00  0.0000E+00  0.0000E+00  0.0000E+00  0.0000E+00  0.0000E+00  0.0000E+00
REACH    3        0    26  0.1958E+03  0.2251E+02  0.2100E+02  0.1301E-02  0.1592E+00  0.2629E+04  0.2170E+04  0.1196E+04  0.2204E+04  0.1750E+04  0.3459E+03  0.2476E+03  0.5651E+04  0.5422E+04  0.0000E+00  0.0000E+00  0.0000E+00  0.0000E+00  0.1250E+03  0.1727E+03  0.1892E+03  0.0000E+00  0.3056E+05  0.0000E+00  0.2820E+04  0.8104E+04  0.0000E+00  0.0000E+00  0.0000E+00  0.0000E+00  0.0000E+00  0.0000E+00  0.0000E+00  0.0000E+00  0.0000E+00  0.0000E+00  0.0000E+00  0.0000E+00  0.0000E+00  0.0000E+00  0.0000E+00  0.0000E+00  0.0000E+00
REACH    4        0    26  0.3629E+02  0.2689E+01  0.2637E+01  0.1337E-03  0.1634E-01  0.2265E+03  0.2213E+03  0.9713E+03  0.3083E+03  0.3063E+03  0.5203E+02  0.4817E+02  0.1220E+04  0.1150E+04  0.0000E+00  0.0000E+00  0.0000E+00  0.0000E+00  0.7054E+01  0.5747E+01  0.1865E+03  0.0000E+00  0.4243E+05  0.0000E+00  0.2414E+04  0.0000E+00  0.0000E+00  0.0000E+00  0.0000E+00  0.0000E+00  0.0000E+00  0.0000E+00  0.0000E+00  0.0000E+00  0.0000E+00  0.0000E+00  0.0000E+00  0.0000E+00  0.0000E+00  0.0000E+00  0.0000E+00  0.0000E+00  0.0000E+00
REACH    5        0    26  0.2911E+03  0.2755E+02  0.2481E+02  0.2963E-02  0.3627E+00  0.2407E+04  0.1790E+04  0.8348E+03  0.2072E+04  0.1560E+04  0.2992E+03  0.2019E+03  0.8152E+04  0.7818E+04  0.0000E+00  0.0000E+00  0.0000E+00  0.0000E+00  0.1880E+03  0.2235E+03  0.6413E+02  0.0000E+00  0.4074E+03  0.0000E+00  0.1191E+05  0.3355E+05  0.0000E+00  0.0000E+00  0.0000E+00  0.0000E+00  0.0000E+00  0.0000E+00  0.0000E+00  0.0000E+00  0.0000E+00  0.0000E+00  0.0000E+00  0.0000E+00  0.0000E+00  0.0000E+00  0.0000E+00  0.0000E+00  0.0000E+00
REACH    1        0    27  0.7646E+02  0.3608E+01  0.4388E+01  0.8709E-03  0.9758E-01  0.6864E+02  0.6864E+02  0.1811E+03  0.2403E+03  0.4606E+03  0.3408E+02  0.7065E+02  0.7722E+03  0.6267E+03  0.0000E+00  0.0000E+00  0.0000E+00  0.0000E+00  0.9552E+01  0.0000E+00  0.6669E+03  0.0000E+00  0.3970E+05  0.0000E+00  0.3298E+04  0.0000E+00  0.0000E+00  0.0000E+00  0.0000E+00  0.0000E+00  0.0000E+00  0.0000E+00  0.0000E+00  0.0000E+00  0.0000E+00  0.0000E+00  0.0000E+00  0.0000E+00  0.0000E+00  0.0000E+00  0.0000E+00  0.0000E+00  0.0000E+00
REACH    2        0    27  0.8510E+02  0.3126E+01  0.3751E+01  0.8332E-03  0.9331E-01  0.1335E+03  0.1335E+03  0.4120E+03  0.3147E+03  0.5127E+03  0.4705E+02  0.7905E+02  0.1024E+04  0.9204E+03  0.0000E+00  0.0000E+00  0.0000E+00  0.0000E+00  0.7736E+01  0.0000E+00  0.6173E+03  0.0000E+00  0.4263E+05  0.0000E+00  0.2807E+04  0.0000E+00  0.0000E+00  0.0000E+00  0.0000E+00  0.0000E+00  0.0000E+00  0.0000E+00  0.0000E+00  0.0000E+00  0.0000E+00  0.0000E+00  0.0000E+00  0.0000E+00  0.0000E+00  0.0000E+00  0.0000E+00  0.0000E+00  0.0000E+00
REACH    3        0    27  0.1958E+03  0.8626E+01  0.1040E+02  0.1370E-02  0.1550E+00  0.2414E+03  0.4228E+03  0.4704E+03  0.1004E+04  0.2267E+04  0.1553E+03  0.3761E+03  0.1800E+04  0.1053E+04  0.0000E+00  0.0000E+00  0.0000E+00  0.0000E+00  0.1254E+01  0.0000E+00  0.4166E+04  0.0000E+00  0.7670E+04  0.0000E+00  0.4422E+03  0.3397E+04  0.0000E+00  0.0000E+00  0.0000E+00  0.0000E+00  0.0000E+00  0.0000E+00  0.0000E+00  0.0000E+00  0.0000E+00  0.0000E+00  0.0000E+00  0.0000E+00  0.0000E+00  0.0000E+00  0.0000E+00  0.0000E+00  0.0000E+00
REACH    4        0    27  0.3629E+02  0.3699E+00  0.4288E+00  0.1371E-03  0.1545E-01  0.1150E+02  0.1150E+02  0.3104E+03  0.2346E+02  0.9123E+02  0.3675E+01  0.1430E+02  0.1676E+03  0.0000E+00  0.0000E+00  0.0000E+00  0.0000E+00  0.0000E+00  0.8098E+00  0.0000E+00  0.3227E+04  0.0000E+00  0.4881E+04  0.0000E+00  0.2799E+03  0.0000E+00  0.0000E+00  0.0000E+00  0.0000E+00  0.0000E+00  0.0000E+00  0.0000E+00  0.0000E+00  0.0000E+00  0.0000E+00  0.0000E+00  0.0000E+00  0.0000E+00  0.0000E+00  0.0000E+00  0.0000E+00  0.0000E+00  0.0000E+00
REACH    5        0    27  0.2911E+03  0.1229E+02  0.1550E+02  0.3154E-02  0.3572E+00  0.4421E+03  0.6565E+03  0.4901E+03  0.2363E+04  0.3562E+04  0.3919E+03  0.5774E+03  0.1677E+04  0.1111E+04  0.0000E+00  0.0000E+00  0.0000E+00  0.0000E+00  0.3505E+01  0.0000E+00  0.4613E+04  0.0000E+00  0.1202E+04  0.0000E+00  0.4790E+04  0.2752E+05  0.0000E+00  0.0000E+00  0.0000E+00  0.0000E+00  0.0000E+00  0.0000E+00  0.0000E+00  0.0000E+00  0.0000E+00  0.0000E+00  0.0000E+00  0.0000E+00  0.0000E+00  0.0000E+00  0.0000E+00  0.0000E+00  0.0000E+00
REACH    1        0    28  0.7646E+02  0.4431E+01  0.3775E+01  0.1271E-02  0.9758E-01  0.1710E+03  0.1459E+03  0.4474E+03  0.3872E+03  0.3002E+03  0.5513E+02  0.3948E+02  0.7197E+03  0.5695E+03  0.0000E+00  0.0000E+00  0.0000E+00  0.0000E+00  0.1132E+02  0.1367E+02  0.1178E+03  0.0000E+00  0.5011E+05  0.0000E+00  0.3850E+04  0.0000E+00  0.0000E+00  0.0000E+00  0.0000E+00  0.0000E+00  0.0000E+00  0.0000E+00  0.0000E+00  0.0000E+00  0.0000E+00  0.0000E+00  0.0000E+00  0.0000E+00  0.0000E+00  0.0000E+00  0.0000E+00  0.0000E+00  0.0000E+00
REACH    2        0    28  0.8510E+02  0.2054E+01  0.1678E+01  0.1202E-02  0.9202E-01  0.1038E+03  0.8524E+02  0.5879E+03  0.1825E+03  0.1625E+03  0.2873E+02  0.2445E+02  0.7114E+03  0.5273E+03  0.0000E+00  0.0000E+00  0.0000E+00  0.0000E+00  0.5406E+01  0.4457E+00  0.1482E+03  0.0000E+00  0.1508E+05  0.0000E+00  0.1809E+04  0.0000E+00  0.0000E+00  0.0000E+00  0.0000E+00  0.0000E+00  0.0000E+00  0.0000E+00  0.0000E+00  0.0000E+00  0.0000E+00  0.0000E+00  0.0000E+00  0.0000E+00  0.0000E+00  0.0000E+00  0.0000E+00  0.0000E+00  0.0000E+00
REACH    3        0    28  0.1958E+03  0.5936E+01  0.4872E+01  0.1984E-02  0.1532E+00  0.2812E+03  0.1778E+03  0.4223E+03  0.4864E+03  0.3938E+03  0.6914E+02  0.5345E+02  0.1394E+04  0.1053E+04  0.0000E+00  0.0000E+00  0.0000E+00  0.0000E+00  0.1535E+02  0.1033E+02  0.2529E+03  0.0000E+00  0.2020E+04  0.0000E+00  0.4219E+03  0.1039E+04  0.0000E+00  0.0000E+00  0.0000E+00  0.0000E+00  0.0000E+00  0.0000E+00  0.0000E+00  0.0000E+00  0.0000E+00  0.0000E+00  0.0000E+00  0.0000E+00  0.0000E+00  0.0000E+00  0.0000E+00  0.0000E+00  0.0000E+00
REACH    4        0    28  0.3629E+02  0.4129E+00  0.3685E+00  0.2006E-03  0.1545E-01  0.3089E+02  0.2766E+02  0.8689E+03  0.3634E+02  0.8799E+02  0.6216E+01  0.1550E+02  0.2452E+03  0.1440E+03  0.0000E+00  0.0000E+00  0.0000E+00  0.0000E+00  0.9948E+00  0.0000E+00  0.1956E+03  0.0000E+00  0.5135E+04  0.0000E+00  0.3019E+03  0.0000E+00  0.0000E+00  0.0000E+00  0.0000E+00  0.0000E+00  0.0000E+00  0.0000E+00  0.0000E+00  0.0000E+00  0.0000E+00  0.0000E+00  0.0000E+00  0.0000E+00  0.0000E+00  0.0000E+00  0.0000E+00  0.0000E+00  0.0000E+00
REACH    5        0    28  0.2911E+03  0.6339E+01  0.5110E+01  0.4553E-02  0.3517E+00  0.2128E+03  0.1247E+03  0.2825E+03  0.4886E+03  0.3423E+03  0.7053E+02  0.4467E+02  0.1699E+04  0.1341E+04  0.0000E+00  0.0000E+00  0.0000E+00  0.0000E+00  0.1299E+02  0.1980E+02  0.9249E+02  0.0000E+00  0.2119E+03  0.0000E+00  0.2032E+04  0.4916E+04  0.0000E+00  0.0000E+00  0.0000E+00  0.0000E+00  0.0000E+00  0.0000E+00  0.0000E+00  0.0000E+00  0.0000E+00  0.0000E+00  0.0000E+00  0.0000E+00  0.0000E+00  0.0000E+00  0.0000E+00  0.0000E+00  0.0000E+00
REACH    1        0    29  0.7646E+02  0.2467E+01  0.3112E+01  0.4449E-03  0.9644E-01  0.4278E+02  0.4278E+02  0.1591E+03  0.1617E+03  0.2318E+03  0.2300E+02  0.3226E+02  0.4503E+03  0.4836E+03  0.0000E+00  0.0000E+00  0.0000E+00  0.0000E+00  0.6482E+01  0.4282E+01  0.1747E+03  0.0000E+00  0.1164E+05  0.0000E+00  0.2223E+04  0.6662E+04  0.0000E+00  0.0000E+00  0.0000E+00  0.0000E+00  0.0000E+00  0.0000E+00  0.0000E+00  0.0000E+00  0.0000E+00  0.0000E+00  0.0000E+00  0.0000E+00  0.0000E+00  0.0000E+00  0.0000E+00  0.0000E+00  0.0000E+00
REACH    2        0    29  0.8510E+02  0.5671E+01  0.5758E+01  0.4355E-03  0.9459E-01  0.5979E+03  0.5710E+03  0.1148E+04  0.4482E+03  0.4172E+03  0.8248E+02  0.6767E+02  0.6720E+03  0.7074E+03  0.0000E+00  0.0000E+00  0.0000E+00  0.0000E+00  0.1417E+02  0.2641E+02  0.1356E+03  0.0000E+00  0.4901E+05  0.0000E+00  0.5019E+04  0.0000E+00  0.0000E+00  0.0000E+00  0.0000E+00  0.0000E+00  0.0000E+00  0.0000E+00  0.0000E+00  0.0000E+00  0.0000E+00  0.0000E+00  0.0000E+00  0.0000E+00  0.0000E+00  0.0000E+00  0.0000E+00  0.0000E+00  0.0000E+00
REACH    3        0    29  0.1958E+03  0.1003E+02  0.1061E+02  0.7099E-03  0.1555E+00  0.8271E+03  0.7585E+03  0.8275E+03  0.7359E+03  0.7035E+03  0.1191E+03  0.1014E+03  0.1475E+04  0.1554E+04  0.0000E+00  0.0000E+00  0.0000E+00  0.0000E+00  0.3363E+02  0.5139E+02  0.2081E+03  0.0000E+00  0.1003E+05  0.0000E+00  0.7684E+04  0.2271E+05  0.0000E+00  0.0000E+00  0.0000E+00  0.0000E+00  0.0000E+00  0.0000E+00  0.0000E+00  0.0000E+00  0.0000E+00  0.0000E+00  0.0000E+00  0.0000E+00  0.0000E+00  0.0000E+00  0.0000E+00  0.0000E+00  0.0000E+00
REACH    4        0    29  0.3629E+02  0.1045E+01  0.1077E+01  0.7231E-04  0.1582E-01  0.5898E+02  0.5847E+02  0.6281E+03  0.8448E+02  0.1403E+03  0.1513E+02  0.2398E+02  0.2514E+03  0.2014E+03  0.0000E+00  0.0000E+00  0.0000E+00  0.0000E+00  0.2576E+01  0.0000E+00  0.1907E+03  0.0000E+00  0.1051E+05  0.0000E+00  0.8399E+03  0.0000E+00  0.0000E+00  0.0000E+00  0.0000E+00  0.0000E+00  0.0000E+00  0.0000E+00  0.0000E+00  0.0000E+00  0.0000E+00  0.0000E+00  0.0000E+00  0.0000E+00  0.0000E+00  0.0000E+00  0.0000E+00  0.0000E+00  0.0000E+00
REACH    5        0    29  0.2911E+03  0.1350E+02  0.1357E+02  0.1626E-02  0.3567E+00  0.8294E+03  0.6785E+03  0.5787E+03  0.8547E+03  0.7197E+03  0.1280E+03  0.9473E+02  0.2192E+04  0.2287E+04  0.0000E+00  0.0000E+00  0.0000E+00  0.0000E+00  0.5573E+02  0.8270E+02  0.6907E+02  0.0000E+00  0.2831E+03  0.0000E+00  0.2438E+05  0.0000E+00  0.0000E+00  0.0000E+00  0.0000E+00  0.0000E+00  0.0000E+00  0.0000E+00  0.0000E+00  0.0000E+00  0.0000E+00  0.0000E+00  0.0000E+00  0.0000E+00  0.0000E+00  0.0000E+00  0.0000E+00  0.0000E+00  0.0000E+00
[...]
REACH    5        0    58  0.2911E+03  0.6866E+00  0.6582E+00  0.3356E-02  0.3463E+00  0.4842E+01  0.3821E+01  0.6719E+02  0.7811E+01  0.6073E+01  0.1175E+01  0.8032E+00  0.2091E+03  0.2004E+03  0.0000E+00  0.0000E+00  0.0000E+00  0.0000E+00  0.2095E+01  0.2317E+01  0.0000E+00  0.0000E+00  0.0000E+00  0.0000E+00  0.2802E+00  0.8056E+00  0.0000E+00  0.0000E+00  0.0000E+00  0.0000E+00  0.0000E+00  0.0000E+00  0.0000E+00  0.0000E+00  0.0000E+00  0.0000E+00  0.0000E+00  0.0000E+00  0.0000E+00  0.0000E+00  0.0000E+00  0.0000E+00  0.0000E+00
REACH    1        0    59  0.7646E+02  0.4291E-01  0.6112E-01  0.0000E+00  0.4291E-01  0.3801E-01  0.3801E-01  0.7198E+01  0.2604E-01  0.3017E-01  0.7135E-02  0.7283E-02  0.2573E+02  0.3665E+02  0.0000E+00  0.0000E+00  0.0000E+00  0.0000E+00  0.5745E-01  0.9174E-01  0.0000E+00  0.0000E+00  0.0000E+00  0.0000E+00  0.0000E+00  0.1584E-01  0.0000E+00  0.0000E+00  0.0000E+00  0.0000E+00  0.0000E+00  0.0000E+00  0.0000E+00  0.0000E+00  0.0000E+00  0.0000E+00  0.0000E+00  0.0000E+00  0.0000E+00  0.0000E+00  0.0000E+00  0.0000E+00  0.0000E+00
REACH    2        0    59  0.8510E+02  0.1466E+00  0.2022E+00  0.1346E-02  0.8996E-01  0.5507E+00  0.5507E+00  0.3153E+02  0.3458E+01  0.3801E+01  0.4767E+00  0.4484E+00  0.2749E+02  0.3895E+02  0.0000E+00  0.0000E+00  0.0000E+00  0.0000E+00  0.2799E+00  0.6384E+00  0.0000E+00  0.0000E+00  0.0000E+00  0.0000E+00  0.0000E+00  0.5240E-01  0.0000E+00  0.0000E+00  0.0000E+00  0.0000E+00  0.0000E+00  0.0000E+00  0.0000E+00  0.0000E+00  0.0000E+00  0.0000E+00  0.0000E+00  0.0000E+00  0.0000E+00  0.0000E+00  0.0000E+00  0.0000E+00  0.0000E+00
REACH    3        0    59  0.1958E+03  0.2847E+00  0.3065E+00  0.2208E-02  0.1492E+00  0.7616E+00  0.8963E+00  0.3385E+02  0.4148E+01  0.3644E+01  0.5110E+00  0.3938E+00  0.8061E+02  0.8761E+02  0.0000E+00  0.0000E+00  0.0000E+00  0.0000E+00  0.7605E+00  0.9976E+00  0.0000E+00  0.0000E+00  0.0000E+00  0.0000E+00  0.6824E-01  0.2582E+00  0.0000E+00  0.0000E+00  0.0000E+00  0.0000E+00  0.0000E+00  0.0000E+00  0.0000E+00  0.0000E+00  0.0000E+00  0.0000E+00  0.0000E+00  0.0000E+00  0.0000E+00  0.0000E+00  0.0000E+00  0.0000E+00  0.0000E+00
REACH    4        0    59  0.3629E+02  0.3250E-01  0.3252E-01  0.2245E-03  0.1515E-01  0.2673E-01  0.2673E-01  0.9515E+01  0.1890E+00  0.1556E+00  0.2610E-01  0.1890E-01  0.3801E+01  0.3810E+01  0.0000E+00  0.0000E+00  0.0000E+00  0.0000E+00  0.8814E-02  0.1947E-01  0.0000E+00  0.0000E+00  0.0000E+00  0.0000E+00  0.0000E+00  0.8429E-02  0.0000E+00  0.0000E+00  0.0000E+00  0.0000E+00  0.0000E+00  0.0000E+00  0.0000E+00  0.0000E+00  0.0000E+00  0.0000E+00  0.0000E+00  0.0000E+00  0.0000E+00  0.0000E+00  0.0000E+00  0.0000E+00  0.0000E+00
REACH    5        0    59  0.2911E+03  0.4666E+00  0.4466E+00  0.5101E-02  0.3458E+00  0.2139E+01  0.1756E+01  0.4549E+02  0.4371E+01  0.3403E+01  0.6091E+00  0.4178E+00  0.1320E+03  0.1264E+03  0.0000E+00  0.0000E+00  0.0000E+00  0.0000E+00  0.1308E+01  0.1420E+01  0.0000E+00  0.0000E+00  0.0000E+00  0.0000E+00  0.2666E+00  0.7657E+00  0.0000E+00  0.0000E+00  0.0000E+00  0.0000E+00  0.0000E+00  0.0000E+00  0.0000E+00  0.0000E+00  0.0000E+00  0.0000E+00  0.0000E+00  0.0000E+00  0.0000E+00  0.0000E+00  0.0000E+00  0.0000E+00  0.0000E+00
REACH    1        0    60  0.7646E+02  0.3069E-01  0.4821E-01  0.0000E+00  0.3069E-01  0.1433E-01  0.1433E-01  0.3442E+01  0.1069E-01  0.1342E-01  0.2802E-02  0.3056E-02  0.1354E+02  0.2127E+02  0.0000E+00  0.0000E+00  0.0000E+00  0.0000E+00  0.2687E-01  0.5668E-01  0.0000E+00  0.0000E+00  0.0000E+00  0.0000E+00  0.0000E+00  0.1250E-01  0.0000E+00  0.0000E+00  0.0000E+00  0.0000E+00  0.0000E+00  0.0000E+00  0.0000E+00  0.0000E+00  0.0000E+00  0.0000E+00  0.0000E+00  0.0000E+00  0.0000E+00  0.0000E+00  0.0000E+00  0.0000E+00  0.0000E+00
REACH    2        0    60  0.8510E+02  0.7358E-01  0.8103E-01  0.0000E+00  0.7358E-01  0.1766E+00  0.1766E+00  0.2523E+02  0.1210E+01  0.1066E+01  0.1657E+00  0.1267E+00  0.1184E+02  0.1304E+02  0.0000E+00  0.0000E+00  0.0000E+00  0.0000E+00  0.9253E-01  0.1610E+00  0.0000E+00  0.0000E+00  0.0000E+00  0.0000E+00  0.0000E+00  0.2100E-01  0.0000E+00  0.0000E+00  0.0000E+00  0.0000E+00  0.0000E+00  0.0000E+00  0.0000E+00  0.0000E+00  0.0000E+00  0.0000E+00  0.0000E+00  0.0000E+00  0.0000E+00  0.0000E+00  0.0000E+00  0.0000E+00  0.0000E+00
REACH    3        0    60  0.1958E+03  0.1431E+00  0.1434E+00  0.0000E+00  0.1431E+00  0.2369E+00  0.2305E+00  0.1860E+02  0.1249E+01  0.1001E+01  0.1564E+00  0.1089E+00  0.3696E+02  0.3706E+02  0.0000E+00  0.0000E+00  0.0000E+00  0.0000E+00  0.2310E+00  0.2860E+00  0.0000E+00  0.0000E+00  0.0000E+00  0.0000E+00  0.3350E-01  0.1008E+00  0.0000E+00  0.0000E+00  0.0000E+00  0.0000E+00  0.0000E+00  0.0000E+00  0.0000E+00  0.0000E+00  0.0000E+00  0.0000E+00  0.0000E+00  0.0000E+00  0.0000E+00  0.0000E+00  0.0000E+00  0.0000E+00  0.0000E+00
REACH    4        0    60  0.3629E+02  0.2662E-01  0.2625E-01  0.3479E-03  0.1515E-01  0.5810E-02  0.5810E-02  0.2562E+01  0.5365E-01  0.4229E-01  0.7238E-02  0.4957E-02  0.2865E+01  0.2825E+01  0.0000E+00  0.0000E+00  0.0000E+00  0.0000E+00  0.2801E-02  0.8262E-02  0.0000E+00  0.0000E+00  0.0000E+00  0.0000E+00  0.0000E+00  0.6804E-02  0.0000E+00  0.0000E+00  0.0000E+00  0.0000E+00  0.0000E+00  0.0000E+00  0.0000E+00  0.0000E+00  0.0000E+00  0.0000E+00  0.0000E+00  0.0000E+00  0.0000E+00  0.0000E+00  0.0000E+00  0.0000E+00  0.0000E+00
REACH    5        0    60  0.2911E+03  0.2405E+00  0.2925E+00  0.0000E+00  0.2405E+00  0.8664E+00  0.6818E+00  0.2698E+02  0.1336E+01  0.1299E+01  0.2154E+00  0.1819E+00  0.6129E+02  0.7454E+02  0.0000E+00  0.0000E+00  0.0000E+00  0.0000E+00  0.4413E+00  0.6324E+00  0.0000E+00  0.0000E+00  0.0000E+00  0.0000E+00  0.1076E+00  0.3925E+00  0.0000E+00  0.0000E+00  0.0000E+00  0.0000E+00  0.0000E+00  0.0000E+00  0.0000E+00  0.0000E+00  0.0000E+00  0.0000E+00  0.0000E+00  0.0000E+00  0.0000E+00  0.0000E+00  0.0000E+00  0.0000E+00  0.0000E+00
REACH    1        0    61  0.7646E+02  0.2438E-01  0.3811E-01  0.0000E+00  0.2438E-01  0.5427E-02  0.5427E-02  0.1649E+01  0.4479E-02  0.5570E-02  0.1116E-02  0.1201E-02  0.7785E+01  0.1217E+02  0.0000E+00  0.0000E+00  0.0000E+00  0.0000E+00  0.1270E-01  0.3118E-01  0.0000E+00  0.0000E+00  0.0000E+00  0.0000E+00  0.0000E+00  0.9877E-02  0.0000E+00  0.0000E+00  0.0000E+00  0.0000E+00  0.0000E+00  0.0000E+00  0.0000E+00  0.0000E+00  0.0000E+00  0.0000E+00  0.0000E+00  0.0000E+00  0.0000E+00  0.0000E+00  0.0000E+00  0.0000E+00  0.0000E+00
REACH    2        0    61  0.8510E+02  0.4775E-01  0.6699E-01  0.0000E+00  0.4775E-01  0.5927E-01  0.5927E-01  0.1024E+02  0.4246E+00  0.4740E+00  0.5788E-01  0.5590E-01  0.6514E+01  0.9138E+01  0.0000E+00  0.0000E+00  0.0000E+00  0.0000E+00  0.3109E-01  0.7494E-01  0.0000E+00  0.0000E+00  0.0000E+00  0.0000E+00  0.0000E+00  0.1736E-01  0.0000E+00  0.0000E+00  0.0000E+00  0.0000E+00  0.0000E+00  0.0000E+00  0.0000E+00  0.0000E+00  0.0000E+00  0.0000E+00  0.0000E+00  0.0000E+00  0.0000E+00  0.0000E+00  0.0000E+00  0.0000E+00  0.0000E+00
REACH    3        0    61  0.1958E+03  0.1159E+00  0.1317E+00  0.0000E+00  0.1159E+00  0.8480E-01  0.1527E+00  0.1342E+02  0.6034E+00  0.5456E+00  0.7550E-01  0.5907E-01  0.2317E+02  0.2633E+02  0.0000E+00  0.0000E+00  0.0000E+00  0.0000E+00  0.1142E+00  0.1716E+00  0.0000E+00  0.0000E+00  0.0000E+00  0.0000E+00  0.2724E-01  0.9288E-01  0.0000E+00  0.0000E+00  0.0000E+00  0.0000E+00  0.0000E+00  0.0000E+00  0.0000E+00  0.0000E+00  0.0000E+00  0.0000E+00  0.0000E+00  0.0000E+00  0.0000E+00  0.0000E+00  0.0000E+00  0.0000E+00  0.0000E+00
REACH    4        0    61  0.3629E+02  0.2307E-01  0.2277E-01  0.2561E-03  0.1515E-01  0.2068E-02  0.2068E-02  0.1051E+01  0.2623E-01  0.2060E-01  0.3468E-02  0.2357E-02  0.2426E+01  0.2395E+01  0.0000E+00  0.0000E+00  0.0000E+00  0.0000E+00  0.1559E-02  0.4617E-02  0.0000E+00  0.0000E+00  0.0000E+00  0.0000E+00  0.0000E+00  0.5903E-02  0.0000E+00  0.0000E+00  0.0000E+00  0.0000E+00  0.0000E+00  0.0000E+00  0.0000E+00  0.0000E+00  0.0000E+00  0.0000E+00  0.0000E+00  0.0000E+00  0.0000E+00  0.0000E+00  0.0000E+00  0.0000E+00  0.0000E+00
REACH    5        0    61  0.2911E+03  0.1963E+00  0.2518E+00  0.0000E+00  0.1963E+00  0.4821E+00  0.4301E+00  0.1977E+02  0.7183E+00  0.7331E+00  0.1141E+00  0.1008E+00  0.4032E+02  0.5172E+02  0.0000E+00  0.0000E+00  0.0000E+00  0.0000E+00  0.2518E+00  0.3862E+00  0.0000E+00  0.0000E+00  0.0000E+00  0.0000E+00  0.9878E-01  0.3801E+00  0.0000E+00  0.0000E+00  0.0000E+00  0.0000E+00  0.0000E+00  0.0000E+00  0.0000E+00  0.0000E+00  0.0000E+00  0.0000E+00  0.0000E+00  0.0000E+00  0.0000E+00  0.0000E+00  0.0000E+00  0.0000E+00  0.0000E+00
REACH    1        0    62  0.7646E+02  0.2084E-01  0.3067E-01  0.0000E+00  0.2084E-01  0.2062E-02  0.2062E-02  0.7780E+00  0.1912E-02  0.2230E-02  0.4513E-03  0.4540E-03  0.4980E+01  0.7330E+01  0.0000E+00  0.0000E+00  0.0000E+00  0.0000E+00  0.6051E-02  0.1807E-01  0.0000E+00  0.0000E+00  0.0000E+00  0.0000E+00  0.0000E+00  0.7950E-02  0.0000E+00  0.0000E+00  0.0000E+00  0.0000E+00  0.0000E+00  0.0000E+00  0.0000E+00  0.0000E+00  0.0000E+00  0.0000E+00  0.0000E+00  0.0000E+00  0.0000E+00  0.0000E+00  0.0000E+00  0.0000E+00  0.0000E+00
REACH    2        0    62  0.8510E+02  0.3747E-01  0.5445E-01  0.0000E+00  0.3747E-01  0.2018E-01  0.2018E-01  0.4289E+01  0.1491E+00  0.1717E+00  0.2026E-01  0.2013E-01  0.4568E+01  0.6639E+01  0.0000E+00  0.0000E+00  0.0000E+00  0.0000E+00  0.1057E-01  0.3935E-01  0.0000E+00  0.0000E+00  0.0000E+00  0.0000E+00  0.0000E+00  0.1411E-01  0.0000E+00  0.0000E+00  0.0000E+00  0.0000E+00  0.0000E+00  0.0000E+00  0.0000E+00  0.0000E+00  0.0000E+00  0.0000E+00  0.0000E+00  0.0000E+00  0.0000E+00  0.0000E+00  0.0000E+00  0.0000E+00  0.0000E+00
REACH    3        0    62  0.1958E+03  0.9416E-01  0.1157E+00  0.0000E+00  0.9416E-01  0.3488E-01  0.1074E+00  0.1075E+02  0.2711E+00  0.2640E+00  0.3473E-01  0.2916E-01  0.1545E+02  0.1898E+02  0.0000E+00  0.0000E+00  0.0000E+00  0.0000E+00  0.6336E-01  0.1064E+00  0.0000E+00  0.0000E+00  0.0000E+00  0.0000E+00  0.2206E-01  0.8132E-01  0.0000E+00  0.0000E+00  0.0000E+00  0.0000E+00  0.0000E+00  0.0000E+00  0.0000E+00  0.0000E+00  0.0000E+00  0.0000E+00  0.0000E+00  0.0000E+00  0.0000E+00  0.0000E+00  0.0000E+00  0.0000E+00  0.0000E+00
REACH    4        0    62  0.3629E+02  0.2028E-01  0.1989E-01  0.3708E-03  0.1507E-01  0.1234E-02  0.1234E-02  0.7182E+00  0.1869E-01  0.1453E-01  0.2450E-02  0.1643E-02  0.2114E+01  0.2073E+01  0.0000E+00  0.0000E+00  0.0000E+00  0.0000E+00  0.1175E-02  0.3457E-02  0.0000E+00  0.0000E+00  0.0000E+00  0.0000E+00  0.0000E+00  0.5156E-02  0.0000E+00  0.0000E+00  0.0000E+00  0.0000E+00  0.0000E+00  0.0000E+00  0.0000E+00  0.0000E+00  0.0000E+00  0.0000E+00  0.0000E+00  0.0000E+00  0.0000E+00  0.0000E+00  0.0000E+00  0.0000E+00  0.0000E+00
REACH    5        0    62  0.2911E+03  0.1619E+00  0.2135E+00  0.0000E+00  0.1619E+00  0.2790E+00  0.3896E+00  0.2113E+02  0.3576E+00  0.3737E+00  0.5823E-01  0.5248E-01  0.2752E+02  0.3629E+02  0.0000E+00  0.0000E+00  0.0000E+00  0.0000E+00  0.1490E+00  0.2487E+00  0.0000E+00  0.0000E+00  0.0000E+00  0.0000E+00  0.8648E-01  0.3421E+00  0.0000E+00  0.0000E+00  0.0000E+00  0.0000E+00  0.0000E+00  0.0000E+00  0.0000E+00  0.0000E+00  0.0000E+00  0.0000E+00  0.0000E+00  0.0000E+00  0.0000E+00  0.0000E+00  0.0000E+00  0.0000E+00  0.0000E+00
REACH    1        0    63  0.7646E+02  0.1864E-01  0.2538E-01  0.0000E+00  0.1864E-01  0.7861E-03  0.7861E-03  0.3584E+00  0.8317E-03  0.8946E-03  0.1868E-03  0.1728E-03  0.3554E+01  0.4840E+01  0.0000E+00  0.0000E+00  0.0000E+00  0.0000E+00  0.2904E-02  0.1162E-01  0.0000E+00  0.0000E+00  0.0000E+00  0.0000E+00  0.0000E+00  0.6580E-02  0.0000E+00  0.0000E+00  0.0000E+00  0.0000E+00  0.0000E+00  0.0000E+00  0.0000E+00  0.0000E+00  0.0000E+00  0.0000E+00  0.0000E+00  0.0000E+00  0.0000E+00  0.0000E+00  0.0000E+00  0.0000E+00  0.0000E+00
REACH    2        0    63  0.8510E+02  0.3254E-01  0.4505E-01  0.0000E+00  0.3254E-01  0.6933E-02  0.6933E-02  0.1781E+01  0.5239E-01  0.5729E-01  0.7108E-02  0.6685E-02  0.3763E+01  0.5210E+01  0.0000E+00  0.0000E+00  0.0000E+00  0.0000E+00  0.3630E-02  0.1508E-01  0.0000E+00  0.0000E+00  0.0000E+00  0.0000E+00  0.0000E+00  0.1168E-01  0.0000E+00  0.0000E+00  0.0000E+00  0.0000E+00  0.0000E+00  0.0000E+00  0.0000E+00  0.0000E+00  0.0000E+00  0.0000E+00  0.0000E+00  0.0000E+00  0.0000E+00  0.0000E+00  0.0000E+00  0.0000E+00  0.0000E+00
REACH    3        0    63  0.1958E+03  0.7819E-01  0.9963E-01  0.0000E+00  0.7819E-01  0.1706E-01  0.8435E-01  0.9799E+01  0.1356E+00  0.1365E+00  0.1807E-01  0.1564E-01  0.1128E+02  0.1437E+02  0.0000E+00  0.0000E+00  0.0000E+00  0.0000E+00  0.3133E-01  0.6119E-01  0.0000E+00  0.0000E+00  0.0000E+00  0.0000E+00  0.1826E-01  0.6979E-01  0.0000E+00  0.0000E+00  0.0000E+00  0.0000E+00  0.0000E+00  0.0000E+00  0.0000E+00  0.0000E+00  0.0000E+00  0.0000E+00  0.0000E+00  0.0000E+00  0.0000E+00  0.0000E+00  0.0000E+00  0.0000E+00  0.0000E+00
REACH    4        0    63  0.3629E+02  0.1793E-01  0.1744E-01  0.4304E-03  0.1507E-01  0.9504E-03  0.9504E-03  0.6306E+00  0.1518E-01  0.1167E-01  0.1987E-02  0.1313E-02  0.1857E+01  0.1807E+01  0.0000E+00  0.0000E+00  0.0000E+00  0.0000E+00  0.9691E-03  0.2829E-02  0.0000E+00  0.0000E+00  0.0000E+00  0.0000E+00  0.0000E+00  0.4521E-02  0.0000E+00  0.0000E+00  0.0000E+00  0.0000E+00  0.0000E+00  0.0000E+00  0.0000E+00  0.0000E+00  0.0000E+00  0.0000E+00  0.0000E+00  0.0000E+00  0.0000E+00  0.0000E+00  0.0000E+00  0.0000E+00  0.0000E+00
REACH    5        0    63  0.2911E+03  0.1348E+00  0.1797E+00  0.0000E+00  0.1348E+00  0.1740E+00  0.2848E+00  0.1834E+02  0.1894E+00  0.1994E+00  0.3123E-01  0.2829E-01  0.1992E+02  0.2656E+02  0.0000E+00  0.0000E+00  0.0000E+00  0.0000E+00  0.8434E-01  0.1509E+00  0.0000E+00  0.0000E+00  0.0000E+00  0.0000E+00  0.7431E-01  0.2972E+00  0.0000E+00  0.0000E+00  0.0000E+00  0.0000E+00  0.0000E+00  0.0000E+00  0.0000E+00  0.0000E+00  0.0000E+00  0.0000E+00  0.0000E+00  0.0000E+00  0.0000E+00  0.0000E+00  0.0000E+00  0.0000E+00  0.0000E+00
REACH    1        0    64  0.7646E+02  0.1712E-01  0.2173E-01  0.0000E+00  0.1712E-01  0.3012E-03  0.3012E-03  0.1604E+00  0.3686E-03  0.3749E-03  0.8068E-04  0.7141E-04  0.2788E+01  0.3539E+01  0.0000E+00  0.0000E+00  0.0000E+00  0.0000E+00  0.1402E-02  0.5337E-02  0.0000E+00  0.0000E+00  0.0000E+00  0.0000E+00  0.0000E+00  0.5633E-02  0.0000E+00  0.0000E+00  0.0000E+00  0.0000E+00  0.0000E+00  0.0000E+00  0.0000E+00  0.0000E+00  0.0000E+00  0.0000E+00  0.0000E+00  0.0000E+00  0.0000E+00  0.0000E+00  0.0000E+00  0.0000E+00  0.0000E+00
REACH    2        0    64  0.8510E+02  0.2958E-01  0.3840E-01  0.0000E+00  0.2958E-01  0.2397E-02  0.2397E-02  0.7225E+00  0.1842E-01  0.1915E-01  0.2498E-02  0.2261E-02  0.3357E+01  0.4358E+01  0.0000E+00  0.0000E+00  0.0000E+00  0.0000E+00  0.1255E-02  0.4888E-02  0.0000E+00  0.0000E+00  0.0000E+00  0.0000E+00  0.0000E+00  0.9954E-02  0.0000E+00  0.0000E+00  0.0000E+00  0.0000E+00  0.0000E+00  0.0000E+00  0.0000E+00  0.0000E+00  0.0000E+00  0.0000E+00  0.0000E+00  0.0000E+00  0.0000E+00  0.0000E+00  0.0000E+00  0.0000E+00  0.0000E+00
REACH    3        0    64  0.1958E+03  0.6687E-01  0.8565E-01  0.0000E+00  0.6687E-01  0.9999E-02  0.6965E-01  0.9413E+01  0.8150E-01  0.8363E-01  0.1129E-01  0.1008E-01  0.8931E+01  0.1144E+02  0.0000E+00  0.0000E+00  0.0000E+00  0.0000E+00  0.1391E-01  0.3321E-01  0.0000E+00  0.0000E+00  0.0000E+00  0.0000E+00  0.1559E-01  0.5989E-01  0.0000E+00  0.0000E+00  0.0000E+00  0.0000E+00  0.0000E+00  0.0000E+00  0.0000E+00  0.0000E+00  0.0000E+00  0.0000E+00  0.0000E+00  0.0000E+00  0.0000E+00  0.0000E+00  0.0000E+00  0.0000E+00  0.0000E+00
REACH    4        0    64  0.3629E+02  0.1591E-01  0.1552E-01  0.3281E-03  0.1507E-01  0.7874E-03  0.7874E-03  0.5872E+00  0.1274E-01  0.9952E-02  0.1668E-02  0.1134E-02  0.1639E+01  0.1599E+01  0.0000E+00  0.0000E+00  0.0000E+00  0.0000E+00  0.8163E-03  0.2388E-02  0.0000E+00  0.0000E+00  0.0000E+00  0.0000E+00  0.0000E+00  0.4023E-02  0.0000E+00  0.0000E+00  0.0000E+00  0.0000E+00  0.0000E+00  0.0000E+00  0.0000E+00  0.0000E+00  0.0000E+00  0.0000E+00  0.0000E+00  0.0000E+00  0.0000E+00  0.0000E+00  0.0000E+00  0.0000E+00  0.0000E+00
REACH    5        0    64  0.2911E+03  0.1139E+00  0.1515E+00  0.0000E+00  0.1139E+00  0.1166E+00  0.2171E+00  0.1659E+02  0.1150E+00  0.1226E+00  0.1865E-01  0.1731E-01  0.1532E+02  0.2038E+02  0.0000E+00  0.0000E+00  0.0000E+00  0.0000E+00  0.4617E-01  0.8847E-01  0.0000E+00  0.0000E+00  0.0000E+00  0.0000E+00  0.6391E-01  0.2551E+00  0.0000E+00  0.0000E+00  0.0000E+00  0.0000E+00  0.0000E+00  0.0000E+00  0.0000E+00  0.0000E+00  0.0000E+00  0.0000E+00  0.0000E+00  0.0000E+00  0.0000E+00  0.0000E+00  0.0000E+00  0.0000E+00  0.0000E+00
REACH    1        0    65  0.7646E+02  0.1597E-01  0.1910E-01  0.0000E+00  0.1597E-01  0.1161E-03  0.1161E-03  0.7036E-01  0.1665E-03  0.1603E-03  0.3799E-04  0.3195E-04  0.2344E+01  0.2804E+01  0.0000E+00  0.0000E+00  0.0000E+00  0.0000E+00  0.6797E-03  0.2439E-02  0.0000E+00  0.0000E+00  0.0000E+00  0.0000E+00  0.0000E+00  0.4951E-02  0.0000E+00  0.0000E+00  0.0000E+00  0.0000E+00  0.0000E+00  0.0000E+00  0.0000E+00  0.0000E+00  0.0000E+00  0.0000E+00  0.0000E+00  0.0000E+00  0.0000E+00  0.0000E+00  0.0000E+00  0.0000E+00  0.0000E+00
REACH    2        0    65  0.8510E+02  0.2744E-01  0.3361E-01  0.0000E+00  0.2744E-01  0.8329E-03  0.8329E-03  0.2868E+00  0.6476E-02  0.6385E-02  0.8824E-03  0.7599E-03  0.3100E+01  0.3798E+01  0.0000E+00  0.0000E+00  0.0000E+00  0.0000E+00  0.4369E-03  0.1606E-02  0.0000E+00  0.0000E+00  0.0000E+00  0.0000E+00  0.0000E+00  0.8712E-02  0.0000E+00  0.0000E+00  0.0000E+00  0.0000E+00  0.0000E+00  0.0000E+00  0.0000E+00  0.0000E+00  0.0000E+00  0.0000E+00  0.0000E+00  0.0000E+00  0.0000E+00  0.0000E+00  0.0000E+00  0.0000E+00  0.0000E+00
REACH    3        0    65  0.1958E+03  0.5861E-01  0.7402E-01  0.0000E+00  0.5861E-01  0.6756E-02  0.5897E-01  0.9222E+01  0.5619E-01  0.5712E-01  0.7961E-02  0.7069E-02  0.7482E+01  0.9448E+01  0.0000E+00  0.0000E+00  0.0000E+00  0.0000E+00  0.7002E-02  0.2115E-01  0.0000E+00  0.0000E+00  0.0000E+00  0.0000E+00  0.1366E-01  0.5176E-01  0.0000E+00  0.0000E+00  0.0000E+00  0.0000E+00  0.0000E+00  0.0000E+00  0.0000E+00  0.0000E+00  0.0000E+00  0.0000E+00  0.0000E+00  0.0000E+00  0.0000E+00  0.0000E+00  0.0000E+00  0.0000E+00  0.0000E+00
REACH    4        0    65  0.3629E+02  0.1418E-01  0.1462E-01  0.0000E+00  0.1418E-01  0.6636E-03  0.6636E-03  0.5253E+00  0.1076E-01  0.8935E-02  0.1411E-02  0.1023E-02  0.1452E+01  0.1497E+01  0.0000E+00  0.0000E+00  0.0000E+00  0.0000E+00  0.6915E-03  0.2139E-02  0.0000E+00  0.0000E+00  0.0000E+00  0.0000E+00  0.0000E+00  0.3790E-02  0.0000E+00  0.0000E+00  0.0000E+00  0.0000E+00  0.0000E+00  0.0000E+00  0.0000E+00  0.0000E+00  0.0000E+00  0.0000E+00  0.0000E+00  0.0000E+00  0.0000E+00  0.0000E+00  0.0000E+00  0.0000E+00  0.0000E+00
REACH    5        0    65  0.2911E+03  0.9832E-01  0.1285E+00  0.0000E+00  0.9832E-01  0.8369E-01  0.1614E+00  0.1453E+02  0.7723E-01  0.8125E-01  0.1197E-01  0.1100E-01  0.1242E+02  0.1623E+02  0.0000E+00  0.0000E+00  0.0000E+00  0.0000E+00  0.2879E-01  0.5853E-01  0.0000E+00  0.0000E+00  0.0000E+00  0.0000E+00  0.5555E-01  0.2179E+00  0.0000E+00  0.0000E+00  0.0000E+00  0.0000E+00  0.0000E+00  0.0000E+00  0.0000E+00  0.0000E+00  0.0000E+00  0.0000E+00  0.0000E+00  0.0000E+00  0.0000E+00  0.0000E+00  0.0000E+00  0.0000E+00  0.0000E+00
