1
    SWAT Jun 01 2011    VER 2009/Rev. 481                                                                0/ 0/   0      0: 0: 0

    General Input/Output section (file.cio):                                        
    2013-7-14 00:00:00 ARCGIS-SWAT interface AV                                     
                                                                                    


LULC HRU      GIS  SUB  MGT  MON   AREAkm2  PRECIPmm
FRST   1000010001    1    0    1.26181E+02     0.000
FRST   1000010001    1    0    2.26181E+02     0.000
FRST   1000010001    1    0    3.26181E+02     0.000
FRST   1000010001    1    0    4.26181E+02     0.000
FRST   1000010001    1    0    5.26181E+02     0.000
FRST   1000010001    1    0    6.26181E+02     0.000
FRST   1000010001    1    0    7.26181E+02     0.000
FRST   1000010001    1    0    8.26181E+02     0.000
FRST   1000010001    1    0    9.26181E+02     0.000
FRST   1000010001    1    0   10.26181E+02     0.000
FRST   1000010001    1    0   11.26181E+02     0.000
FRST   1000010001    1    0   12.26181E+02     0.000
FRST   1000010001    1    0   13.26181E+02     0.000
FRST   1000010001    1    0   14.26181E+02     0.000
FRST   1000010001    1    0   15.26181E+02     0.000
FRST   1000010001    1    0   16.26181E+02     0.000
FRST   1000010001    1    0   17.26181E+02     0.000
FRST   1000010001    1    0   18.26181E+02     0.000
FRST   1000010001    1    0   19.26181E+02     0.000
FRST   1000010001    1    0   20.26181E+02     0.000
FRST   1000010001    1    0   21.26181E+02     0.000
FRST   1000010001    1    0   22.26181E+02     0.000
FRST   1000010001    1    0   23.26181E+02     0.000
FRST   1000010001    1    0   24.26181E+02     2.600
FRST   1000010001    1    0   25.26181E+02     4.200
FRST   1000010001    1    0   26.26181E+02    19.900
FRST   1000010001    1    0   27.26181E+02     2.100
FRST   1000010001    1    0   28.26181E+02     8.400
FRST   1000010001    1    0   29.26181E+02     3.500
FRST   1000010001    1    0   30.26181E+02    32.800
FRST   1000010001    1    0   31.26181E+02    24.600
FRST   1000010001    1    0   32.26181E+02    11.300
FRST   1000010001    1    0   33.26181E+02     7.800
FRST   1000010001    1    0   34.26181E+02     0.000
FRST   1000010001    1    0   35.26181E+02     0.000
FRST   1000010001    1    0   36.26181E+02     0.000
FRST   1000010001    1    0   37.26181E+02     0.000
FRST   1000010001    1    0   38.26181E+02     0.000
FRST   1000010001    1    0   39.26181E+02     0.000
FRST   1000010001    1    0   40.26181E+02     0.000
FRST   1000010001    1    0   41.26181E+02     0.000
FRST   1000010001    1    0   42.26181E+02     0.000
FRST   1000010001    1    0   43.26181E+02     0.000
FRST   1000010001    1    0   44.26181E+02     0.000
FRST   1000010001    1    0   45.26181E+02     0.000
FRST   1000010001    1    0   46.26181E+02     0.000
FRST   1000010001    1    0   47.26181E+02     0.000
FRST   1000010001    1    0   48.26181E+02     0.000
FRST   1000010001    1    0   49.26181E+02     0.000
FRST   1000010001    1    0   50.26181E+02     0.000
FRST   1000010001    1    0   51.26181E+02     0.000
FRST   1000010001    1    0   52.26181E+02     0.000
FRST   1000010001    1    0   53.26181E+02     0.000
FRST   1000010001    1    0   54.26181E+02     0.000
FRST   1000010001    1    0   55.26181E+02     3.000
FRST   1000010001    1    0   56.26181E+02     1.300
FRST   1000010001    1    0   57.26181E+02     0.000
FRST   1000010001    1    0   58.26181E+02     0.000
FRST   1000010001    1    0   59.26181E+02     0.000
FRST   1000010001    1    0   60.26181E+02     0.000
FRST   1000010001    1    0   61.26181E+02     0.000
FRST   1000010001    1    0   62.26181E+02     0.000
FRST   1000010001    1    0   63.26181E+02     0.000
FRST   1000010001    1    0   64.26181E+02     0.000
FRST   1000010001    1    0   65.26181E+02     0.000
